recall.rec: written by SWAT+ editor v2.1.0 on 2023-02-01 16:50 for SWAT+ rev.60.5.4
      id  name               rec_typ  file              
       1  id1                      3  id1.rec           
       2  id2                      3  id2.rec           
