                   SWAT+               
             Revision 60.5.6          
      Soil & Water Assessment Tool    
               PC Version             
    Program reading . . . executing


  Date of Sim   4/20/2023 Time  15: 4:23
 reading from precipitation file         Time  15: 4:23
 reading from temperature file           Time  15: 4:23
 reading from solar radiation file       Time  15: 4:23
 reading from relative humidity file     Time  15: 4:24
 reading from wind file                  Time  15: 4:24
 reading from wgn file                   Time  15: 4:24
 reading from wx station file            Time  15: 4:24
  Original Simulation        1   1  2003 Yr    1 of   20 Time  15: 4:30
  Original Simulation        1   2  2003 Yr    1 of   20 Time  15: 4:31
  Original Simulation        1   3  2003 Yr    1 of   20 Time  15: 4:31
  Original Simulation        1   4  2003 Yr    1 of   20 Time  15: 4:32
  Original Simulation        1   5  2003 Yr    1 of   20 Time  15: 4:32
  Original Simulation        1   6  2003 Yr    1 of   20 Time  15: 4:33
  Original Simulation        1   7  2003 Yr    1 of   20 Time  15: 4:33
  Original Simulation        1   8  2003 Yr    1 of   20 Time  15: 4:34
  Original Simulation        1   9  2003 Yr    1 of   20 Time  15: 4:34
  Original Simulation        1  10  2003 Yr    1 of   20 Time  15: 4:35
  Original Simulation        1  11  2003 Yr    1 of   20 Time  15: 4:35
  Original Simulation        1  12  2003 Yr    1 of   20 Time  15: 4:36
  Original Simulation        1  13  2003 Yr    1 of   20 Time  15: 4:36
  Original Simulation        1  14  2003 Yr    1 of   20 Time  15: 4:37
  Original Simulation        1  15  2003 Yr    1 of   20 Time  15: 4:37
  Original Simulation        1  16  2003 Yr    1 of   20 Time  15: 4:38
  Original Simulation        1  17  2003 Yr    1 of   20 Time  15: 4:38
  Original Simulation        1  18  2003 Yr    1 of   20 Time  15: 4:39
  Original Simulation        1  19  2003 Yr    1 of   20 Time  15: 4:39
  Original Simulation        1  20  2003 Yr    1 of   20 Time  15: 4:40
  Original Simulation        1  21  2003 Yr    1 of   20 Time  15: 4:40
  Original Simulation        1  22  2003 Yr    1 of   20 Time  15: 4:40
  Original Simulation        1  23  2003 Yr    1 of   20 Time  15: 4:41
  Original Simulation        1  24  2003 Yr    1 of   20 Time  15: 4:41
  Original Simulation        1  25  2003 Yr    1 of   20 Time  15: 4:42
  Original Simulation        1  26  2003 Yr    1 of   20 Time  15: 4:42
  Original Simulation        1  27  2003 Yr    1 of   20 Time  15: 4:43
  Original Simulation        1  28  2003 Yr    1 of   20 Time  15: 4:43
  Original Simulation        1  29  2003 Yr    1 of   20 Time  15: 4:44
  Original Simulation        1  30  2003 Yr    1 of   20 Time  15: 4:44
  Original Simulation        1  31  2003 Yr    1 of   20 Time  15: 4:45
  Original Simulation        2   1  2003 Yr    1 of   20 Time  15: 4:45
  Original Simulation        2   2  2003 Yr    1 of   20 Time  15: 4:46
  Original Simulation        2   3  2003 Yr    1 of   20 Time  15: 4:46
  Original Simulation        2   4  2003 Yr    1 of   20 Time  15: 4:47
  Original Simulation        2   5  2003 Yr    1 of   20 Time  15: 4:47
  Original Simulation        2   6  2003 Yr    1 of   20 Time  15: 4:48
  Original Simulation        2   7  2003 Yr    1 of   20 Time  15: 4:48
  Original Simulation        2   8  2003 Yr    1 of   20 Time  15: 4:49
  Original Simulation        2   9  2003 Yr    1 of   20 Time  15: 4:49
  Original Simulation        2  10  2003 Yr    1 of   20 Time  15: 4:50
  Original Simulation        2  11  2003 Yr    1 of   20 Time  15: 4:50
  Original Simulation        2  12  2003 Yr    1 of   20 Time  15: 4:51
  Original Simulation        2  13  2003 Yr    1 of   20 Time  15: 4:51
  Original Simulation        2  14  2003 Yr    1 of   20 Time  15: 4:52
  Original Simulation        2  15  2003 Yr    1 of   20 Time  15: 4:52
  Original Simulation        2  16  2003 Yr    1 of   20 Time  15: 4:52
  Original Simulation        2  17  2003 Yr    1 of   20 Time  15: 4:53
  Original Simulation        2  18  2003 Yr    1 of   20 Time  15: 4:53
  Original Simulation        2  19  2003 Yr    1 of   20 Time  15: 4:54
  Original Simulation        2  20  2003 Yr    1 of   20 Time  15: 4:54
  Original Simulation        2  21  2003 Yr    1 of   20 Time  15: 4:55
  Original Simulation        2  22  2003 Yr    1 of   20 Time  15: 4:55
  Original Simulation        2  23  2003 Yr    1 of   20 Time  15: 4:56
  Original Simulation        2  24  2003 Yr    1 of   20 Time  15: 4:56
  Original Simulation        2  25  2003 Yr    1 of   20 Time  15: 4:57
  Original Simulation        2  26  2003 Yr    1 of   20 Time  15: 4:57
  Original Simulation        2  27  2003 Yr    1 of   20 Time  15: 4:58
  Original Simulation        2  28  2003 Yr    1 of   20 Time  15: 4:58
  Original Simulation        3   1  2003 Yr    1 of   20 Time  15: 4:59
  Original Simulation        3   2  2003 Yr    1 of   20 Time  15: 4:59
  Original Simulation        3   3  2003 Yr    1 of   20 Time  15: 5: 0
  Original Simulation        3   4  2003 Yr    1 of   20 Time  15: 5: 0
  Original Simulation        3   5  2003 Yr    1 of   20 Time  15: 5: 1
  Original Simulation        3   6  2003 Yr    1 of   20 Time  15: 5: 1
  Original Simulation        3   7  2003 Yr    1 of   20 Time  15: 5: 2
  Original Simulation        3   8  2003 Yr    1 of   20 Time  15: 5: 2
  Original Simulation        3   9  2003 Yr    1 of   20 Time  15: 5: 3
  Original Simulation        3  10  2003 Yr    1 of   20 Time  15: 5: 3
  Original Simulation        3  11  2003 Yr    1 of   20 Time  15: 5: 4
  Original Simulation        3  12  2003 Yr    1 of   20 Time  15: 5: 4
  Original Simulation        3  13  2003 Yr    1 of   20 Time  15: 5: 5
  Original Simulation        3  14  2003 Yr    1 of   20 Time  15: 5: 5
  Original Simulation        3  15  2003 Yr    1 of   20 Time  15: 5: 6
  Original Simulation        3  16  2003 Yr    1 of   20 Time  15: 5: 6
  Original Simulation        3  17  2003 Yr    1 of   20 Time  15: 5: 7
  Original Simulation        3  18  2003 Yr    1 of   20 Time  15: 5: 7
  Original Simulation        3  19  2003 Yr    1 of   20 Time  15: 5: 8
  Original Simulation        3  20  2003 Yr    1 of   20 Time  15: 5: 8
  Original Simulation        3  21  2003 Yr    1 of   20 Time  15: 5: 9
  Original Simulation        3  22  2003 Yr    1 of   20 Time  15: 5: 9
  Original Simulation        3  23  2003 Yr    1 of   20 Time  15: 5:10
  Original Simulation        3  24  2003 Yr    1 of   20 Time  15: 5:10
  Original Simulation        3  25  2003 Yr    1 of   20 Time  15: 5:10
  Original Simulation        3  26  2003 Yr    1 of   20 Time  15: 5:11
  Original Simulation        3  27  2003 Yr    1 of   20 Time  15: 5:11
  Original Simulation        3  28  2003 Yr    1 of   20 Time  15: 5:12
  Original Simulation        3  29  2003 Yr    1 of   20 Time  15: 5:12
  Original Simulation        3  30  2003 Yr    1 of   20 Time  15: 5:13
  Original Simulation        3  31  2003 Yr    1 of   20 Time  15: 5:13
  Original Simulation        4   1  2003 Yr    1 of   20 Time  15: 5:14
  Original Simulation        4   2  2003 Yr    1 of   20 Time  15: 5:14
  Original Simulation        4   3  2003 Yr    1 of   20 Time  15: 5:15
  Original Simulation        4   4  2003 Yr    1 of   20 Time  15: 5:15
  Original Simulation        4   5  2003 Yr    1 of   20 Time  15: 5:16
  Original Simulation        4   6  2003 Yr    1 of   20 Time  15: 5:16
  Original Simulation        4   7  2003 Yr    1 of   20 Time  15: 5:17
  Original Simulation        4   8  2003 Yr    1 of   20 Time  15: 5:17
  Original Simulation        4   9  2003 Yr    1 of   20 Time  15: 5:18
  Original Simulation        4  10  2003 Yr    1 of   20 Time  15: 5:18
  Original Simulation        4  11  2003 Yr    1 of   20 Time  15: 5:19
  Original Simulation        4  12  2003 Yr    1 of   20 Time  15: 5:19
  Original Simulation        4  13  2003 Yr    1 of   20 Time  15: 5:20
  Original Simulation        4  14  2003 Yr    1 of   20 Time  15: 5:20
  Original Simulation        4  15  2003 Yr    1 of   20 Time  15: 5:21
  Original Simulation        4  16  2003 Yr    1 of   20 Time  15: 5:21
  Original Simulation        4  17  2003 Yr    1 of   20 Time  15: 5:22
  Original Simulation        4  18  2003 Yr    1 of   20 Time  15: 5:22
  Original Simulation        4  19  2003 Yr    1 of   20 Time  15: 5:23
  Original Simulation        4  20  2003 Yr    1 of   20 Time  15: 5:23
  Original Simulation        4  21  2003 Yr    1 of   20 Time  15: 5:24
  Original Simulation        4  22  2003 Yr    1 of   20 Time  15: 5:24
  Original Simulation        4  23  2003 Yr    1 of   20 Time  15: 5:25
  Original Simulation        4  24  2003 Yr    1 of   20 Time  15: 5:25
  Original Simulation        4  25  2003 Yr    1 of   20 Time  15: 5:26
  Original Simulation        4  26  2003 Yr    1 of   20 Time  15: 5:26
  Original Simulation        4  27  2003 Yr    1 of   20 Time  15: 5:27
  Original Simulation        4  28  2003 Yr    1 of   20 Time  15: 5:27
  Original Simulation        4  29  2003 Yr    1 of   20 Time  15: 5:28
  Original Simulation        4  30  2003 Yr    1 of   20 Time  15: 5:28
  Original Simulation        5   1  2003 Yr    1 of   20 Time  15: 5:29
  Original Simulation        5   2  2003 Yr    1 of   20 Time  15: 5:29
  Original Simulation        5   3  2003 Yr    1 of   20 Time  15: 5:29
  Original Simulation        5   4  2003 Yr    1 of   20 Time  15: 5:30
  Original Simulation        5   5  2003 Yr    1 of   20 Time  15: 5:30
  Original Simulation        5   6  2003 Yr    1 of   20 Time  15: 5:31
  Original Simulation        5   7  2003 Yr    1 of   20 Time  15: 5:31
  Original Simulation        5   8  2003 Yr    1 of   20 Time  15: 5:32
  Original Simulation        5   9  2003 Yr    1 of   20 Time  15: 5:32
  Original Simulation        5  10  2003 Yr    1 of   20 Time  15: 5:33
  Original Simulation        5  11  2003 Yr    1 of   20 Time  15: 5:33
  Original Simulation        5  12  2003 Yr    1 of   20 Time  15: 5:34
  Original Simulation        5  13  2003 Yr    1 of   20 Time  15: 5:34
  Original Simulation        5  14  2003 Yr    1 of   20 Time  15: 5:35
  Original Simulation        5  15  2003 Yr    1 of   20 Time  15: 5:35
  Original Simulation        5  16  2003 Yr    1 of   20 Time  15: 5:36
  Original Simulation        5  17  2003 Yr    1 of   20 Time  15: 5:36
  Original Simulation        5  18  2003 Yr    1 of   20 Time  15: 5:37
  Original Simulation        5  19  2003 Yr    1 of   20 Time  15: 5:37
  Original Simulation        5  20  2003 Yr    1 of   20 Time  15: 5:38
  Original Simulation        5  21  2003 Yr    1 of   20 Time  15: 5:38
  Original Simulation        5  22  2003 Yr    1 of   20 Time  15: 5:39
  Original Simulation        5  23  2003 Yr    1 of   20 Time  15: 5:39
  Original Simulation        5  24  2003 Yr    1 of   20 Time  15: 5:40
  Original Simulation        5  25  2003 Yr    1 of   20 Time  15: 5:40
  Original Simulation        5  26  2003 Yr    1 of   20 Time  15: 5:41
  Original Simulation        5  27  2003 Yr    1 of   20 Time  15: 5:41
  Original Simulation        5  28  2003 Yr    1 of   20 Time  15: 5:42
  Original Simulation        5  29  2003 Yr    1 of   20 Time  15: 5:42
  Original Simulation        5  30  2003 Yr    1 of   20 Time  15: 5:43
  Original Simulation        5  31  2003 Yr    1 of   20 Time  15: 5:43
  Original Simulation        6   1  2003 Yr    1 of   20 Time  15: 5:44
  Original Simulation        6   2  2003 Yr    1 of   20 Time  15: 5:44
  Original Simulation        6   3  2003 Yr    1 of   20 Time  15: 5:45
  Original Simulation        6   4  2003 Yr    1 of   20 Time  15: 5:45
  Original Simulation        6   5  2003 Yr    1 of   20 Time  15: 5:45
  Original Simulation        6   6  2003 Yr    1 of   20 Time  15: 5:46
  Original Simulation        6   7  2003 Yr    1 of   20 Time  15: 5:46
  Original Simulation        6   8  2003 Yr    1 of   20 Time  15: 5:47
  Original Simulation        6   9  2003 Yr    1 of   20 Time  15: 5:47
  Original Simulation        6  10  2003 Yr    1 of   20 Time  15: 5:48
  Original Simulation        6  11  2003 Yr    1 of   20 Time  15: 5:48
  Original Simulation        6  12  2003 Yr    1 of   20 Time  15: 5:49
  Original Simulation        6  13  2003 Yr    1 of   20 Time  15: 5:49
  Original Simulation        6  14  2003 Yr    1 of   20 Time  15: 5:50
  Original Simulation        6  15  2003 Yr    1 of   20 Time  15: 5:50
  Original Simulation        6  16  2003 Yr    1 of   20 Time  15: 5:51
  Original Simulation        6  17  2003 Yr    1 of   20 Time  15: 5:51
  Original Simulation        6  18  2003 Yr    1 of   20 Time  15: 5:52
  Original Simulation        6  19  2003 Yr    1 of   20 Time  15: 5:52
  Original Simulation        6  20  2003 Yr    1 of   20 Time  15: 5:53
  Original Simulation        6  21  2003 Yr    1 of   20 Time  15: 5:53
  Original Simulation        6  22  2003 Yr    1 of   20 Time  15: 5:54
  Original Simulation        6  23  2003 Yr    1 of   20 Time  15: 5:54
  Original Simulation        6  24  2003 Yr    1 of   20 Time  15: 5:55
  Original Simulation        6  25  2003 Yr    1 of   20 Time  15: 5:55
  Original Simulation        6  26  2003 Yr    1 of   20 Time  15: 5:56
  Original Simulation        6  27  2003 Yr    1 of   20 Time  15: 5:56
  Original Simulation        6  28  2003 Yr    1 of   20 Time  15: 5:57
  Original Simulation        6  29  2003 Yr    1 of   20 Time  15: 5:57
  Original Simulation        6  30  2003 Yr    1 of   20 Time  15: 5:58
  Original Simulation        7   1  2003 Yr    1 of   20 Time  15: 5:58
  Original Simulation        7   2  2003 Yr    1 of   20 Time  15: 5:59
  Original Simulation        7   3  2003 Yr    1 of   20 Time  15: 5:59
  Original Simulation        7   4  2003 Yr    1 of   20 Time  15: 5:59
  Original Simulation        7   5  2003 Yr    1 of   20 Time  15: 6: 0
  Original Simulation        7   6  2003 Yr    1 of   20 Time  15: 6: 0
  Original Simulation        7   7  2003 Yr    1 of   20 Time  15: 6: 1
  Original Simulation        7   8  2003 Yr    1 of   20 Time  15: 6: 1
  Original Simulation        7   9  2003 Yr    1 of   20 Time  15: 6: 2
  Original Simulation        7  10  2003 Yr    1 of   20 Time  15: 6: 2
  Original Simulation        7  11  2003 Yr    1 of   20 Time  15: 6: 3
  Original Simulation        7  12  2003 Yr    1 of   20 Time  15: 6: 3
  Original Simulation        7  13  2003 Yr    1 of   20 Time  15: 6: 4
  Original Simulation        7  14  2003 Yr    1 of   20 Time  15: 6: 4
  Original Simulation        7  15  2003 Yr    1 of   20 Time  15: 6: 5
  Original Simulation        7  16  2003 Yr    1 of   20 Time  15: 6: 5
  Original Simulation        7  17  2003 Yr    1 of   20 Time  15: 6: 6
  Original Simulation        7  18  2003 Yr    1 of   20 Time  15: 6: 6
  Original Simulation        7  19  2003 Yr    1 of   20 Time  15: 6: 7
  Original Simulation        7  20  2003 Yr    1 of   20 Time  15: 6: 7
  Original Simulation        7  21  2003 Yr    1 of   20 Time  15: 6: 8
  Original Simulation        7  22  2003 Yr    1 of   20 Time  15: 6: 8
  Original Simulation        7  23  2003 Yr    1 of   20 Time  15: 6: 9
  Original Simulation        7  24  2003 Yr    1 of   20 Time  15: 6: 9
  Original Simulation        7  25  2003 Yr    1 of   20 Time  15: 6:10
  Original Simulation        7  26  2003 Yr    1 of   20 Time  15: 6:10
  Original Simulation        7  27  2003 Yr    1 of   20 Time  15: 6:11
  Original Simulation        7  28  2003 Yr    1 of   20 Time  15: 6:11
  Original Simulation        7  29  2003 Yr    1 of   20 Time  15: 6:11
  Original Simulation        7  30  2003 Yr    1 of   20 Time  15: 6:12
  Original Simulation        7  31  2003 Yr    1 of   20 Time  15: 6:12
  Original Simulation        8   1  2003 Yr    1 of   20 Time  15: 6:13
  Original Simulation        8   2  2003 Yr    1 of   20 Time  15: 6:13
  Original Simulation        8   3  2003 Yr    1 of   20 Time  15: 6:14
  Original Simulation        8   4  2003 Yr    1 of   20 Time  15: 6:14
  Original Simulation        8   5  2003 Yr    1 of   20 Time  15: 6:15
  Original Simulation        8   6  2003 Yr    1 of   20 Time  15: 6:15
  Original Simulation        8   7  2003 Yr    1 of   20 Time  15: 6:16
  Original Simulation        8   8  2003 Yr    1 of   20 Time  15: 6:16
  Original Simulation        8   9  2003 Yr    1 of   20 Time  15: 6:17
  Original Simulation        8  10  2003 Yr    1 of   20 Time  15: 6:17
  Original Simulation        8  11  2003 Yr    1 of   20 Time  15: 6:18
  Original Simulation        8  12  2003 Yr    1 of   20 Time  15: 6:18
  Original Simulation        8  13  2003 Yr    1 of   20 Time  15: 6:19
  Original Simulation        8  14  2003 Yr    1 of   20 Time  15: 6:19
  Original Simulation        8  15  2003 Yr    1 of   20 Time  15: 6:20
  Original Simulation        8  16  2003 Yr    1 of   20 Time  15: 6:20
  Original Simulation        8  17  2003 Yr    1 of   20 Time  15: 6:21
  Original Simulation        8  18  2003 Yr    1 of   20 Time  15: 6:21
  Original Simulation        8  19  2003 Yr    1 of   20 Time  15: 6:22
  Original Simulation        8  20  2003 Yr    1 of   20 Time  15: 6:22
  Original Simulation        8  21  2003 Yr    1 of   20 Time  15: 6:23
  Original Simulation        8  22  2003 Yr    1 of   20 Time  15: 6:23
  Original Simulation        8  23  2003 Yr    1 of   20 Time  15: 6:24
  Original Simulation        8  24  2003 Yr    1 of   20 Time  15: 6:24
  Original Simulation        8  25  2003 Yr    1 of   20 Time  15: 6:25
  Original Simulation        8  26  2003 Yr    1 of   20 Time  15: 6:25
  Original Simulation        8  27  2003 Yr    1 of   20 Time  15: 6:26
  Original Simulation        8  28  2003 Yr    1 of   20 Time  15: 6:26
  Original Simulation        8  29  2003 Yr    1 of   20 Time  15: 6:26
  Original Simulation        8  30  2003 Yr    1 of   20 Time  15: 6:27
  Original Simulation        8  31  2003 Yr    1 of   20 Time  15: 6:27
  Original Simulation        9   1  2003 Yr    1 of   20 Time  15: 6:28
  Original Simulation        9   2  2003 Yr    1 of   20 Time  15: 6:28
  Original Simulation        9   3  2003 Yr    1 of   20 Time  15: 6:29
  Original Simulation        9   4  2003 Yr    1 of   20 Time  15: 6:29
  Original Simulation        9   5  2003 Yr    1 of   20 Time  15: 6:30
  Original Simulation        9   6  2003 Yr    1 of   20 Time  15: 6:30
  Original Simulation        9   7  2003 Yr    1 of   20 Time  15: 6:31
  Original Simulation        9   8  2003 Yr    1 of   20 Time  15: 6:31
  Original Simulation        9   9  2003 Yr    1 of   20 Time  15: 6:32
  Original Simulation        9  10  2003 Yr    1 of   20 Time  15: 6:32
  Original Simulation        9  11  2003 Yr    1 of   20 Time  15: 6:33
  Original Simulation        9  12  2003 Yr    1 of   20 Time  15: 6:33
  Original Simulation        9  13  2003 Yr    1 of   20 Time  15: 6:34
  Original Simulation        9  14  2003 Yr    1 of   20 Time  15: 6:34
  Original Simulation        9  15  2003 Yr    1 of   20 Time  15: 6:35
  Original Simulation        9  16  2003 Yr    1 of   20 Time  15: 6:35
  Original Simulation        9  17  2003 Yr    1 of   20 Time  15: 6:36
  Original Simulation        9  18  2003 Yr    1 of   20 Time  15: 6:36
  Original Simulation        9  19  2003 Yr    1 of   20 Time  15: 6:37
  Original Simulation        9  20  2003 Yr    1 of   20 Time  15: 6:37
  Original Simulation        9  21  2003 Yr    1 of   20 Time  15: 6:38
  Original Simulation        9  22  2003 Yr    1 of   20 Time  15: 6:38
  Original Simulation        9  23  2003 Yr    1 of   20 Time  15: 6:39
  Original Simulation        9  24  2003 Yr    1 of   20 Time  15: 6:39
  Original Simulation        9  25  2003 Yr    1 of   20 Time  15: 6:39
  Original Simulation        9  26  2003 Yr    1 of   20 Time  15: 6:40
  Original Simulation        9  27  2003 Yr    1 of   20 Time  15: 6:40
  Original Simulation        9  28  2003 Yr    1 of   20 Time  15: 6:41
  Original Simulation        9  29  2003 Yr    1 of   20 Time  15: 6:41
  Original Simulation        9  30  2003 Yr    1 of   20 Time  15: 6:42
  Original Simulation       10   1  2003 Yr    1 of   20 Time  15: 6:42
  Original Simulation       10   2  2003 Yr    1 of   20 Time  15: 6:43
  Original Simulation       10   3  2003 Yr    1 of   20 Time  15: 6:43
  Original Simulation       10   4  2003 Yr    1 of   20 Time  15: 6:44
  Original Simulation       10   5  2003 Yr    1 of   20 Time  15: 6:44
  Original Simulation       10   6  2003 Yr    1 of   20 Time  15: 6:45
  Original Simulation       10   7  2003 Yr    1 of   20 Time  15: 6:45
  Original Simulation       10   8  2003 Yr    1 of   20 Time  15: 6:46
  Original Simulation       10   9  2003 Yr    1 of   20 Time  15: 6:46
  Original Simulation       10  10  2003 Yr    1 of   20 Time  15: 6:47
  Original Simulation       10  11  2003 Yr    1 of   20 Time  15: 6:47
  Original Simulation       10  12  2003 Yr    1 of   20 Time  15: 6:48
  Original Simulation       10  13  2003 Yr    1 of   20 Time  15: 6:48
  Original Simulation       10  14  2003 Yr    1 of   20 Time  15: 6:49
  Original Simulation       10  15  2003 Yr    1 of   20 Time  15: 6:49
  Original Simulation       10  16  2003 Yr    1 of   20 Time  15: 6:49
  Original Simulation       10  17  2003 Yr    1 of   20 Time  15: 6:50
  Original Simulation       10  18  2003 Yr    1 of   20 Time  15: 6:50
  Original Simulation       10  19  2003 Yr    1 of   20 Time  15: 6:51
  Original Simulation       10  20  2003 Yr    1 of   20 Time  15: 6:51
  Original Simulation       10  21  2003 Yr    1 of   20 Time  15: 6:52
  Original Simulation       10  22  2003 Yr    1 of   20 Time  15: 6:52
  Original Simulation       10  23  2003 Yr    1 of   20 Time  15: 6:53
  Original Simulation       10  24  2003 Yr    1 of   20 Time  15: 6:53
  Original Simulation       10  25  2003 Yr    1 of   20 Time  15: 6:54
  Original Simulation       10  26  2003 Yr    1 of   20 Time  15: 6:54
  Original Simulation       10  27  2003 Yr    1 of   20 Time  15: 6:55
  Original Simulation       10  28  2003 Yr    1 of   20 Time  15: 6:55
  Original Simulation       10  29  2003 Yr    1 of   20 Time  15: 6:56
  Original Simulation       10  30  2003 Yr    1 of   20 Time  15: 6:56
  Original Simulation       10  31  2003 Yr    1 of   20 Time  15: 6:57
  Original Simulation       11   1  2003 Yr    1 of   20 Time  15: 6:57
  Original Simulation       11   2  2003 Yr    1 of   20 Time  15: 6:58
  Original Simulation       11   3  2003 Yr    1 of   20 Time  15: 6:58
  Original Simulation       11   4  2003 Yr    1 of   20 Time  15: 6:59
  Original Simulation       11   5  2003 Yr    1 of   20 Time  15: 6:59
  Original Simulation       11   6  2003 Yr    1 of   20 Time  15: 7: 0
  Original Simulation       11   7  2003 Yr    1 of   20 Time  15: 7: 0
  Original Simulation       11   8  2003 Yr    1 of   20 Time  15: 7: 1
  Original Simulation       11   9  2003 Yr    1 of   20 Time  15: 7: 1
  Original Simulation       11  10  2003 Yr    1 of   20 Time  15: 7: 1
  Original Simulation       11  11  2003 Yr    1 of   20 Time  15: 7: 2
  Original Simulation       11  12  2003 Yr    1 of   20 Time  15: 7: 2
  Original Simulation       11  13  2003 Yr    1 of   20 Time  15: 7: 3
  Original Simulation       11  14  2003 Yr    1 of   20 Time  15: 7: 3
  Original Simulation       11  15  2003 Yr    1 of   20 Time  15: 7: 4
  Original Simulation       11  16  2003 Yr    1 of   20 Time  15: 7: 4
  Original Simulation       11  17  2003 Yr    1 of   20 Time  15: 7: 5
  Original Simulation       11  18  2003 Yr    1 of   20 Time  15: 7: 5
  Original Simulation       11  19  2003 Yr    1 of   20 Time  15: 7: 6
  Original Simulation       11  20  2003 Yr    1 of   20 Time  15: 7: 6
  Original Simulation       11  21  2003 Yr    1 of   20 Time  15: 7: 7
  Original Simulation       11  22  2003 Yr    1 of   20 Time  15: 7: 7
  Original Simulation       11  23  2003 Yr    1 of   20 Time  15: 7: 8
  Original Simulation       11  24  2003 Yr    1 of   20 Time  15: 7: 8
  Original Simulation       11  25  2003 Yr    1 of   20 Time  15: 7: 9
  Original Simulation       11  26  2003 Yr    1 of   20 Time  15: 7: 9
  Original Simulation       11  27  2003 Yr    1 of   20 Time  15: 7:10
  Original Simulation       11  28  2003 Yr    1 of   20 Time  15: 7:10
  Original Simulation       11  29  2003 Yr    1 of   20 Time  15: 7:11
  Original Simulation       11  30  2003 Yr    1 of   20 Time  15: 7:11
  Original Simulation       12   1  2003 Yr    1 of   20 Time  15: 7:12
  Original Simulation       12   2  2003 Yr    1 of   20 Time  15: 7:12
  Original Simulation       12   3  2003 Yr    1 of   20 Time  15: 7:12
  Original Simulation       12   4  2003 Yr    1 of   20 Time  15: 7:13
  Original Simulation       12   5  2003 Yr    1 of   20 Time  15: 7:13
  Original Simulation       12   6  2003 Yr    1 of   20 Time  15: 7:14
  Original Simulation       12   7  2003 Yr    1 of   20 Time  15: 7:14
  Original Simulation       12   8  2003 Yr    1 of   20 Time  15: 7:15
  Original Simulation       12   9  2003 Yr    1 of   20 Time  15: 7:15
  Original Simulation       12  10  2003 Yr    1 of   20 Time  15: 7:16
  Original Simulation       12  11  2003 Yr    1 of   20 Time  15: 7:16
  Original Simulation       12  12  2003 Yr    1 of   20 Time  15: 7:17
  Original Simulation       12  13  2003 Yr    1 of   20 Time  15: 7:17
  Original Simulation       12  14  2003 Yr    1 of   20 Time  15: 7:18
  Original Simulation       12  15  2003 Yr    1 of   20 Time  15: 7:18
  Original Simulation       12  16  2003 Yr    1 of   20 Time  15: 7:19
  Original Simulation       12  17  2003 Yr    1 of   20 Time  15: 7:19
  Original Simulation       12  18  2003 Yr    1 of   20 Time  15: 7:20
  Original Simulation       12  19  2003 Yr    1 of   20 Time  15: 7:20
  Original Simulation       12  20  2003 Yr    1 of   20 Time  15: 7:21
  Original Simulation       12  21  2003 Yr    1 of   20 Time  15: 7:21
  Original Simulation       12  22  2003 Yr    1 of   20 Time  15: 7:22
  Original Simulation       12  23  2003 Yr    1 of   20 Time  15: 7:22
  Original Simulation       12  24  2003 Yr    1 of   20 Time  15: 7:23
  Original Simulation       12  25  2003 Yr    1 of   20 Time  15: 7:23
  Original Simulation       12  26  2003 Yr    1 of   20 Time  15: 7:24
  Original Simulation       12  27  2003 Yr    1 of   20 Time  15: 7:24
  Original Simulation       12  28  2003 Yr    1 of   20 Time  15: 7:24
  Original Simulation       12  29  2003 Yr    1 of   20 Time  15: 7:25
  Original Simulation       12  30  2003 Yr    1 of   20 Time  15: 7:25
  Original Simulation       12  31  2003 Yr    1 of   20 Time  15: 7:26
  Original Simulation        1   1  2004 Yr    2 of   20 Time  15: 7:26
  Original Simulation        1   2  2004 Yr    2 of   20 Time  15: 7:27
  Original Simulation        1   3  2004 Yr    2 of   20 Time  15: 7:27
  Original Simulation        1   4  2004 Yr    2 of   20 Time  15: 7:28
  Original Simulation        1   5  2004 Yr    2 of   20 Time  15: 7:28
  Original Simulation        1   6  2004 Yr    2 of   20 Time  15: 7:29
  Original Simulation        1   7  2004 Yr    2 of   20 Time  15: 7:29
  Original Simulation        1   8  2004 Yr    2 of   20 Time  15: 7:30
  Original Simulation        1   9  2004 Yr    2 of   20 Time  15: 7:30
  Original Simulation        1  10  2004 Yr    2 of   20 Time  15: 7:31
  Original Simulation        1  11  2004 Yr    2 of   20 Time  15: 7:31
  Original Simulation        1  12  2004 Yr    2 of   20 Time  15: 7:32
  Original Simulation        1  13  2004 Yr    2 of   20 Time  15: 7:32
  Original Simulation        1  14  2004 Yr    2 of   20 Time  15: 7:33
  Original Simulation        1  15  2004 Yr    2 of   20 Time  15: 7:33
  Original Simulation        1  16  2004 Yr    2 of   20 Time  15: 7:34
  Original Simulation        1  17  2004 Yr    2 of   20 Time  15: 7:34
  Original Simulation        1  18  2004 Yr    2 of   20 Time  15: 7:35
  Original Simulation        1  19  2004 Yr    2 of   20 Time  15: 7:35
  Original Simulation        1  20  2004 Yr    2 of   20 Time  15: 7:36
  Original Simulation        1  21  2004 Yr    2 of   20 Time  15: 7:36
  Original Simulation        1  22  2004 Yr    2 of   20 Time  15: 7:37
  Original Simulation        1  23  2004 Yr    2 of   20 Time  15: 7:37
  Original Simulation        1  24  2004 Yr    2 of   20 Time  15: 7:37
  Original Simulation        1  25  2004 Yr    2 of   20 Time  15: 7:38
  Original Simulation        1  26  2004 Yr    2 of   20 Time  15: 7:38
  Original Simulation        1  27  2004 Yr    2 of   20 Time  15: 7:39
  Original Simulation        1  28  2004 Yr    2 of   20 Time  15: 7:39
  Original Simulation        1  29  2004 Yr    2 of   20 Time  15: 7:40
  Original Simulation        1  30  2004 Yr    2 of   20 Time  15: 7:40
  Original Simulation        1  31  2004 Yr    2 of   20 Time  15: 7:41
  Original Simulation        2   1  2004 Yr    2 of   20 Time  15: 7:41
  Original Simulation        2   2  2004 Yr    2 of   20 Time  15: 7:42
  Original Simulation        2   3  2004 Yr    2 of   20 Time  15: 7:42
  Original Simulation        2   4  2004 Yr    2 of   20 Time  15: 7:43
  Original Simulation        2   5  2004 Yr    2 of   20 Time  15: 7:43
  Original Simulation        2   6  2004 Yr    2 of   20 Time  15: 7:44
  Original Simulation        2   7  2004 Yr    2 of   20 Time  15: 7:44
  Original Simulation        2   8  2004 Yr    2 of   20 Time  15: 7:45
  Original Simulation        2   9  2004 Yr    2 of   20 Time  15: 7:45
  Original Simulation        2  10  2004 Yr    2 of   20 Time  15: 7:46
  Original Simulation        2  11  2004 Yr    2 of   20 Time  15: 7:46
  Original Simulation        2  12  2004 Yr    2 of   20 Time  15: 7:47
  Original Simulation        2  13  2004 Yr    2 of   20 Time  15: 7:47
  Original Simulation        2  14  2004 Yr    2 of   20 Time  15: 7:47
  Original Simulation        2  15  2004 Yr    2 of   20 Time  15: 7:48
  Original Simulation        2  16  2004 Yr    2 of   20 Time  15: 7:48
  Original Simulation        2  17  2004 Yr    2 of   20 Time  15: 7:49
  Original Simulation        2  18  2004 Yr    2 of   20 Time  15: 7:49
  Original Simulation        2  19  2004 Yr    2 of   20 Time  15: 7:50
  Original Simulation        2  20  2004 Yr    2 of   20 Time  15: 7:50
  Original Simulation        2  21  2004 Yr    2 of   20 Time  15: 7:51
  Original Simulation        2  22  2004 Yr    2 of   20 Time  15: 7:51
  Original Simulation        2  23  2004 Yr    2 of   20 Time  15: 7:52
  Original Simulation        2  24  2004 Yr    2 of   20 Time  15: 7:52
  Original Simulation        2  25  2004 Yr    2 of   20 Time  15: 7:53
  Original Simulation        2  26  2004 Yr    2 of   20 Time  15: 7:53
  Original Simulation        2  27  2004 Yr    2 of   20 Time  15: 7:54
  Original Simulation        2  28  2004 Yr    2 of   20 Time  15: 7:54
  Original Simulation        2  29  2004 Yr    2 of   20 Time  15: 7:55
  Original Simulation        3   1  2004 Yr    2 of   20 Time  15: 7:55
  Original Simulation        3   2  2004 Yr    2 of   20 Time  15: 7:56
  Original Simulation        3   3  2004 Yr    2 of   20 Time  15: 7:56
  Original Simulation        3   4  2004 Yr    2 of   20 Time  15: 7:57
  Original Simulation        3   5  2004 Yr    2 of   20 Time  15: 7:57
  Original Simulation        3   6  2004 Yr    2 of   20 Time  15: 7:58
  Original Simulation        3   7  2004 Yr    2 of   20 Time  15: 7:58
  Original Simulation        3   8  2004 Yr    2 of   20 Time  15: 7:59
  Original Simulation        3   9  2004 Yr    2 of   20 Time  15: 7:59
  Original Simulation        3  10  2004 Yr    2 of   20 Time  15: 8: 0
  Original Simulation        3  11  2004 Yr    2 of   20 Time  15: 8: 0
  Original Simulation        3  12  2004 Yr    2 of   20 Time  15: 8: 1
  Original Simulation        3  13  2004 Yr    2 of   20 Time  15: 8: 1
  Original Simulation        3  14  2004 Yr    2 of   20 Time  15: 8: 2
  Original Simulation        3  15  2004 Yr    2 of   20 Time  15: 8: 2
  Original Simulation        3  16  2004 Yr    2 of   20 Time  15: 8: 3
  Original Simulation        3  17  2004 Yr    2 of   20 Time  15: 8: 3
  Original Simulation        3  18  2004 Yr    2 of   20 Time  15: 8: 4
  Original Simulation        3  19  2004 Yr    2 of   20 Time  15: 8: 4
  Original Simulation        3  20  2004 Yr    2 of   20 Time  15: 8: 4
  Original Simulation        3  21  2004 Yr    2 of   20 Time  15: 8: 5
  Original Simulation        3  22  2004 Yr    2 of   20 Time  15: 8: 5
  Original Simulation        3  23  2004 Yr    2 of   20 Time  15: 8: 6
  Original Simulation        3  24  2004 Yr    2 of   20 Time  15: 8: 6
  Original Simulation        3  25  2004 Yr    2 of   20 Time  15: 8: 7
  Original Simulation        3  26  2004 Yr    2 of   20 Time  15: 8: 7
  Original Simulation        3  27  2004 Yr    2 of   20 Time  15: 8: 8
  Original Simulation        3  28  2004 Yr    2 of   20 Time  15: 8: 8
  Original Simulation        3  29  2004 Yr    2 of   20 Time  15: 8: 9
  Original Simulation        3  30  2004 Yr    2 of   20 Time  15: 8: 9
  Original Simulation        3  31  2004 Yr    2 of   20 Time  15: 8:10
  Original Simulation        4   1  2004 Yr    2 of   20 Time  15: 8:10
  Original Simulation        4   2  2004 Yr    2 of   20 Time  15: 8:11
  Original Simulation        4   3  2004 Yr    2 of   20 Time  15: 8:11
  Original Simulation        4   4  2004 Yr    2 of   20 Time  15: 8:12
  Original Simulation        4   5  2004 Yr    2 of   20 Time  15: 8:12
  Original Simulation        4   6  2004 Yr    2 of   20 Time  15: 8:13
  Original Simulation        4   7  2004 Yr    2 of   20 Time  15: 8:13
  Original Simulation        4   8  2004 Yr    2 of   20 Time  15: 8:14
  Original Simulation        4   9  2004 Yr    2 of   20 Time  15: 8:14
  Original Simulation        4  10  2004 Yr    2 of   20 Time  15: 8:15
  Original Simulation        4  11  2004 Yr    2 of   20 Time  15: 8:15
  Original Simulation        4  12  2004 Yr    2 of   20 Time  15: 8:16
  Original Simulation        4  13  2004 Yr    2 of   20 Time  15: 8:16
  Original Simulation        4  14  2004 Yr    2 of   20 Time  15: 8:17
  Original Simulation        4  15  2004 Yr    2 of   20 Time  15: 8:17
  Original Simulation        4  16  2004 Yr    2 of   20 Time  15: 8:17
  Original Simulation        4  17  2004 Yr    2 of   20 Time  15: 8:18
  Original Simulation        4  18  2004 Yr    2 of   20 Time  15: 8:18
  Original Simulation        4  19  2004 Yr    2 of   20 Time  15: 8:19
  Original Simulation        4  20  2004 Yr    2 of   20 Time  15: 8:19
  Original Simulation        4  21  2004 Yr    2 of   20 Time  15: 8:20
  Original Simulation        4  22  2004 Yr    2 of   20 Time  15: 8:20
  Original Simulation        4  23  2004 Yr    2 of   20 Time  15: 8:21
  Original Simulation        4  24  2004 Yr    2 of   20 Time  15: 8:21
  Original Simulation        4  25  2004 Yr    2 of   20 Time  15: 8:22
  Original Simulation        4  26  2004 Yr    2 of   20 Time  15: 8:22
  Original Simulation        4  27  2004 Yr    2 of   20 Time  15: 8:23
  Original Simulation        4  28  2004 Yr    2 of   20 Time  15: 8:23
  Original Simulation        4  29  2004 Yr    2 of   20 Time  15: 8:24
  Original Simulation        4  30  2004 Yr    2 of   20 Time  15: 8:24
  Original Simulation        5   1  2004 Yr    2 of   20 Time  15: 8:25
  Original Simulation        5   2  2004 Yr    2 of   20 Time  15: 8:25
  Original Simulation        5   3  2004 Yr    2 of   20 Time  15: 8:26
  Original Simulation        5   4  2004 Yr    2 of   20 Time  15: 8:26
  Original Simulation        5   5  2004 Yr    2 of   20 Time  15: 8:27
  Original Simulation        5   6  2004 Yr    2 of   20 Time  15: 8:27
  Original Simulation        5   7  2004 Yr    2 of   20 Time  15: 8:28
  Original Simulation        5   8  2004 Yr    2 of   20 Time  15: 8:28
  Original Simulation        5   9  2004 Yr    2 of   20 Time  15: 8:29
  Original Simulation        5  10  2004 Yr    2 of   20 Time  15: 8:29
  Original Simulation        5  11  2004 Yr    2 of   20 Time  15: 8:30
  Original Simulation        5  12  2004 Yr    2 of   20 Time  15: 8:30
  Original Simulation        5  13  2004 Yr    2 of   20 Time  15: 8:31
  Original Simulation        5  14  2004 Yr    2 of   20 Time  15: 8:31
  Original Simulation        5  15  2004 Yr    2 of   20 Time  15: 8:32
  Original Simulation        5  16  2004 Yr    2 of   20 Time  15: 8:32
  Original Simulation        5  17  2004 Yr    2 of   20 Time  15: 8:33
  Original Simulation        5  18  2004 Yr    2 of   20 Time  15: 8:33
  Original Simulation        5  19  2004 Yr    2 of   20 Time  15: 8:34
  Original Simulation        5  20  2004 Yr    2 of   20 Time  15: 8:34
  Original Simulation        5  21  2004 Yr    2 of   20 Time  15: 8:34
  Original Simulation        5  22  2004 Yr    2 of   20 Time  15: 8:35
  Original Simulation        5  23  2004 Yr    2 of   20 Time  15: 8:35
  Original Simulation        5  24  2004 Yr    2 of   20 Time  15: 8:36
  Original Simulation        5  25  2004 Yr    2 of   20 Time  15: 8:36
  Original Simulation        5  26  2004 Yr    2 of   20 Time  15: 8:37
  Original Simulation        5  27  2004 Yr    2 of   20 Time  15: 8:37
  Original Simulation        5  28  2004 Yr    2 of   20 Time  15: 8:38
  Original Simulation        5  29  2004 Yr    2 of   20 Time  15: 8:38
  Original Simulation        5  30  2004 Yr    2 of   20 Time  15: 8:39
  Original Simulation        5  31  2004 Yr    2 of   20 Time  15: 8:39
  Original Simulation        6   1  2004 Yr    2 of   20 Time  15: 8:40
  Original Simulation        6   2  2004 Yr    2 of   20 Time  15: 8:40
  Original Simulation        6   3  2004 Yr    2 of   20 Time  15: 8:41
  Original Simulation        6   4  2004 Yr    2 of   20 Time  15: 8:41
  Original Simulation        6   5  2004 Yr    2 of   20 Time  15: 8:42
  Original Simulation        6   6  2004 Yr    2 of   20 Time  15: 8:42
  Original Simulation        6   7  2004 Yr    2 of   20 Time  15: 8:43
  Original Simulation        6   8  2004 Yr    2 of   20 Time  15: 8:43
  Original Simulation        6   9  2004 Yr    2 of   20 Time  15: 8:44
  Original Simulation        6  10  2004 Yr    2 of   20 Time  15: 8:44
  Original Simulation        6  11  2004 Yr    2 of   20 Time  15: 8:45
  Original Simulation        6  12  2004 Yr    2 of   20 Time  15: 8:45
  Original Simulation        6  13  2004 Yr    2 of   20 Time  15: 8:46
  Original Simulation        6  14  2004 Yr    2 of   20 Time  15: 8:46
  Original Simulation        6  15  2004 Yr    2 of   20 Time  15: 8:47
  Original Simulation        6  16  2004 Yr    2 of   20 Time  15: 8:47
  Original Simulation        6  17  2004 Yr    2 of   20 Time  15: 8:48
  Original Simulation        6  18  2004 Yr    2 of   20 Time  15: 8:48
  Original Simulation        6  19  2004 Yr    2 of   20 Time  15: 8:49
  Original Simulation        6  20  2004 Yr    2 of   20 Time  15: 8:49
  Original Simulation        6  21  2004 Yr    2 of   20 Time  15: 8:50
  Original Simulation        6  22  2004 Yr    2 of   20 Time  15: 8:50
  Original Simulation        6  23  2004 Yr    2 of   20 Time  15: 8:51
  Original Simulation        6  24  2004 Yr    2 of   20 Time  15: 8:51
  Original Simulation        6  25  2004 Yr    2 of   20 Time  15: 8:52
  Original Simulation        6  26  2004 Yr    2 of   20 Time  15: 8:52
  Original Simulation        6  27  2004 Yr    2 of   20 Time  15: 8:53
  Original Simulation        6  28  2004 Yr    2 of   20 Time  15: 8:53
  Original Simulation        6  29  2004 Yr    2 of   20 Time  15: 8:53
  Original Simulation        6  30  2004 Yr    2 of   20 Time  15: 8:54
  Original Simulation        7   1  2004 Yr    2 of   20 Time  15: 8:54
  Original Simulation        7   2  2004 Yr    2 of   20 Time  15: 8:55
  Original Simulation        7   3  2004 Yr    2 of   20 Time  15: 8:55
  Original Simulation        7   4  2004 Yr    2 of   20 Time  15: 8:56
  Original Simulation        7   5  2004 Yr    2 of   20 Time  15: 8:56
  Original Simulation        7   6  2004 Yr    2 of   20 Time  15: 8:57
  Original Simulation        7   7  2004 Yr    2 of   20 Time  15: 8:57
  Original Simulation        7   8  2004 Yr    2 of   20 Time  15: 8:58
  Original Simulation        7   9  2004 Yr    2 of   20 Time  15: 8:58
  Original Simulation        7  10  2004 Yr    2 of   20 Time  15: 8:59
  Original Simulation        7  11  2004 Yr    2 of   20 Time  15: 8:59
  Original Simulation        7  12  2004 Yr    2 of   20 Time  15: 9: 0
  Original Simulation        7  13  2004 Yr    2 of   20 Time  15: 9: 0
  Original Simulation        7  14  2004 Yr    2 of   20 Time  15: 9: 1
  Original Simulation        7  15  2004 Yr    2 of   20 Time  15: 9: 1
  Original Simulation        7  16  2004 Yr    2 of   20 Time  15: 9: 2
  Original Simulation        7  17  2004 Yr    2 of   20 Time  15: 9: 2
  Original Simulation        7  18  2004 Yr    2 of   20 Time  15: 9: 3
  Original Simulation        7  19  2004 Yr    2 of   20 Time  15: 9: 3
  Original Simulation        7  20  2004 Yr    2 of   20 Time  15: 9: 4
  Original Simulation        7  21  2004 Yr    2 of   20 Time  15: 9: 4
  Original Simulation        7  22  2004 Yr    2 of   20 Time  15: 9: 5
  Original Simulation        7  23  2004 Yr    2 of   20 Time  15: 9: 5
  Original Simulation        7  24  2004 Yr    2 of   20 Time  15: 9: 6
  Original Simulation        7  25  2004 Yr    2 of   20 Time  15: 9: 6
  Original Simulation        7  26  2004 Yr    2 of   20 Time  15: 9: 7
  Original Simulation        7  27  2004 Yr    2 of   20 Time  15: 9: 7
  Original Simulation        7  28  2004 Yr    2 of   20 Time  15: 9: 8
  Original Simulation        7  29  2004 Yr    2 of   20 Time  15: 9: 8
  Original Simulation        7  30  2004 Yr    2 of   20 Time  15: 9: 9
  Original Simulation        7  31  2004 Yr    2 of   20 Time  15: 9: 9
  Original Simulation        8   1  2004 Yr    2 of   20 Time  15: 9: 9
  Original Simulation        8   2  2004 Yr    2 of   20 Time  15: 9:10
  Original Simulation        8   3  2004 Yr    2 of   20 Time  15: 9:10
  Original Simulation        8   4  2004 Yr    2 of   20 Time  15: 9:11
  Original Simulation        8   5  2004 Yr    2 of   20 Time  15: 9:11
  Original Simulation        8   6  2004 Yr    2 of   20 Time  15: 9:12
  Original Simulation        8   7  2004 Yr    2 of   20 Time  15: 9:12
  Original Simulation        8   8  2004 Yr    2 of   20 Time  15: 9:13
  Original Simulation        8   9  2004 Yr    2 of   20 Time  15: 9:13
  Original Simulation        8  10  2004 Yr    2 of   20 Time  15: 9:14
  Original Simulation        8  11  2004 Yr    2 of   20 Time  15: 9:14
  Original Simulation        8  12  2004 Yr    2 of   20 Time  15: 9:15
  Original Simulation        8  13  2004 Yr    2 of   20 Time  15: 9:15
  Original Simulation        8  14  2004 Yr    2 of   20 Time  15: 9:16
  Original Simulation        8  15  2004 Yr    2 of   20 Time  15: 9:16
  Original Simulation        8  16  2004 Yr    2 of   20 Time  15: 9:17
  Original Simulation        8  17  2004 Yr    2 of   20 Time  15: 9:17
  Original Simulation        8  18  2004 Yr    2 of   20 Time  15: 9:18
  Original Simulation        8  19  2004 Yr    2 of   20 Time  15: 9:18
  Original Simulation        8  20  2004 Yr    2 of   20 Time  15: 9:19
  Original Simulation        8  21  2004 Yr    2 of   20 Time  15: 9:19
  Original Simulation        8  22  2004 Yr    2 of   20 Time  15: 9:20
  Original Simulation        8  23  2004 Yr    2 of   20 Time  15: 9:20
  Original Simulation        8  24  2004 Yr    2 of   20 Time  15: 9:21
  Original Simulation        8  25  2004 Yr    2 of   20 Time  15: 9:21
  Original Simulation        8  26  2004 Yr    2 of   20 Time  15: 9:22
  Original Simulation        8  27  2004 Yr    2 of   20 Time  15: 9:22
  Original Simulation        8  28  2004 Yr    2 of   20 Time  15: 9:23
  Original Simulation        8  29  2004 Yr    2 of   20 Time  15: 9:23
  Original Simulation        8  30  2004 Yr    2 of   20 Time  15: 9:23
  Original Simulation        8  31  2004 Yr    2 of   20 Time  15: 9:24
  Original Simulation        9   1  2004 Yr    2 of   20 Time  15: 9:24
  Original Simulation        9   2  2004 Yr    2 of   20 Time  15: 9:25
  Original Simulation        9   3  2004 Yr    2 of   20 Time  15: 9:25
  Original Simulation        9   4  2004 Yr    2 of   20 Time  15: 9:26
  Original Simulation        9   5  2004 Yr    2 of   20 Time  15: 9:26
  Original Simulation        9   6  2004 Yr    2 of   20 Time  15: 9:27
  Original Simulation        9   7  2004 Yr    2 of   20 Time  15: 9:27
  Original Simulation        9   8  2004 Yr    2 of   20 Time  15: 9:28
  Original Simulation        9   9  2004 Yr    2 of   20 Time  15: 9:28
  Original Simulation        9  10  2004 Yr    2 of   20 Time  15: 9:29
  Original Simulation        9  11  2004 Yr    2 of   20 Time  15: 9:29
  Original Simulation        9  12  2004 Yr    2 of   20 Time  15: 9:30
  Original Simulation        9  13  2004 Yr    2 of   20 Time  15: 9:30
  Original Simulation        9  14  2004 Yr    2 of   20 Time  15: 9:31
  Original Simulation        9  15  2004 Yr    2 of   20 Time  15: 9:31
  Original Simulation        9  16  2004 Yr    2 of   20 Time  15: 9:32
  Original Simulation        9  17  2004 Yr    2 of   20 Time  15: 9:32
  Original Simulation        9  18  2004 Yr    2 of   20 Time  15: 9:33
  Original Simulation        9  19  2004 Yr    2 of   20 Time  15: 9:33
  Original Simulation        9  20  2004 Yr    2 of   20 Time  15: 9:34
  Original Simulation        9  21  2004 Yr    2 of   20 Time  15: 9:34
  Original Simulation        9  22  2004 Yr    2 of   20 Time  15: 9:35
  Original Simulation        9  23  2004 Yr    2 of   20 Time  15: 9:35
  Original Simulation        9  24  2004 Yr    2 of   20 Time  15: 9:36
  Original Simulation        9  25  2004 Yr    2 of   20 Time  15: 9:36
  Original Simulation        9  26  2004 Yr    2 of   20 Time  15: 9:36
  Original Simulation        9  27  2004 Yr    2 of   20 Time  15: 9:37
  Original Simulation        9  28  2004 Yr    2 of   20 Time  15: 9:37
  Original Simulation        9  29  2004 Yr    2 of   20 Time  15: 9:38
  Original Simulation        9  30  2004 Yr    2 of   20 Time  15: 9:38
  Original Simulation       10   1  2004 Yr    2 of   20 Time  15: 9:39
  Original Simulation       10   2  2004 Yr    2 of   20 Time  15: 9:39
  Original Simulation       10   3  2004 Yr    2 of   20 Time  15: 9:40
  Original Simulation       10   4  2004 Yr    2 of   20 Time  15: 9:40
  Original Simulation       10   5  2004 Yr    2 of   20 Time  15: 9:41
  Original Simulation       10   6  2004 Yr    2 of   20 Time  15: 9:41
  Original Simulation       10   7  2004 Yr    2 of   20 Time  15: 9:42
  Original Simulation       10   8  2004 Yr    2 of   20 Time  15: 9:42
  Original Simulation       10   9  2004 Yr    2 of   20 Time  15: 9:43
  Original Simulation       10  10  2004 Yr    2 of   20 Time  15: 9:43
  Original Simulation       10  11  2004 Yr    2 of   20 Time  15: 9:44
  Original Simulation       10  12  2004 Yr    2 of   20 Time  15: 9:44
  Original Simulation       10  13  2004 Yr    2 of   20 Time  15: 9:45
  Original Simulation       10  14  2004 Yr    2 of   20 Time  15: 9:45
  Original Simulation       10  15  2004 Yr    2 of   20 Time  15: 9:46
  Original Simulation       10  16  2004 Yr    2 of   20 Time  15: 9:46
  Original Simulation       10  17  2004 Yr    2 of   20 Time  15: 9:47
  Original Simulation       10  18  2004 Yr    2 of   20 Time  15: 9:47
  Original Simulation       10  19  2004 Yr    2 of   20 Time  15: 9:47
  Original Simulation       10  20  2004 Yr    2 of   20 Time  15: 9:48
  Original Simulation       10  21  2004 Yr    2 of   20 Time  15: 9:48
  Original Simulation       10  22  2004 Yr    2 of   20 Time  15: 9:49
  Original Simulation       10  23  2004 Yr    2 of   20 Time  15: 9:49
  Original Simulation       10  24  2004 Yr    2 of   20 Time  15: 9:50
  Original Simulation       10  25  2004 Yr    2 of   20 Time  15: 9:50
  Original Simulation       10  26  2004 Yr    2 of   20 Time  15: 9:51
  Original Simulation       10  27  2004 Yr    2 of   20 Time  15: 9:51
  Original Simulation       10  28  2004 Yr    2 of   20 Time  15: 9:52
  Original Simulation       10  29  2004 Yr    2 of   20 Time  15: 9:52
  Original Simulation       10  30  2004 Yr    2 of   20 Time  15: 9:53
  Original Simulation       10  31  2004 Yr    2 of   20 Time  15: 9:53
  Original Simulation       11   1  2004 Yr    2 of   20 Time  15: 9:54
  Original Simulation       11   2  2004 Yr    2 of   20 Time  15: 9:54
  Original Simulation       11   3  2004 Yr    2 of   20 Time  15: 9:55
  Original Simulation       11   4  2004 Yr    2 of   20 Time  15: 9:55
  Original Simulation       11   5  2004 Yr    2 of   20 Time  15: 9:56
  Original Simulation       11   6  2004 Yr    2 of   20 Time  15: 9:56
  Original Simulation       11   7  2004 Yr    2 of   20 Time  15: 9:56
  Original Simulation       11   8  2004 Yr    2 of   20 Time  15: 9:57
  Original Simulation       11   9  2004 Yr    2 of   20 Time  15: 9:57
  Original Simulation       11  10  2004 Yr    2 of   20 Time  15: 9:58
  Original Simulation       11  11  2004 Yr    2 of   20 Time  15: 9:58
  Original Simulation       11  12  2004 Yr    2 of   20 Time  15: 9:59
  Original Simulation       11  13  2004 Yr    2 of   20 Time  15: 9:59
  Original Simulation       11  14  2004 Yr    2 of   20 Time  15:10: 0
  Original Simulation       11  15  2004 Yr    2 of   20 Time  15:10: 0
  Original Simulation       11  16  2004 Yr    2 of   20 Time  15:10: 1
  Original Simulation       11  17  2004 Yr    2 of   20 Time  15:10: 1
  Original Simulation       11  18  2004 Yr    2 of   20 Time  15:10: 2
  Original Simulation       11  19  2004 Yr    2 of   20 Time  15:10: 2
  Original Simulation       11  20  2004 Yr    2 of   20 Time  15:10: 3
  Original Simulation       11  21  2004 Yr    2 of   20 Time  15:10: 3
  Original Simulation       11  22  2004 Yr    2 of   20 Time  15:10: 4
  Original Simulation       11  23  2004 Yr    2 of   20 Time  15:10: 4
  Original Simulation       11  24  2004 Yr    2 of   20 Time  15:10: 4
  Original Simulation       11  25  2004 Yr    2 of   20 Time  15:10: 5
  Original Simulation       11  26  2004 Yr    2 of   20 Time  15:10: 5
  Original Simulation       11  27  2004 Yr    2 of   20 Time  15:10: 6
  Original Simulation       11  28  2004 Yr    2 of   20 Time  15:10: 6
  Original Simulation       11  29  2004 Yr    2 of   20 Time  15:10: 7
  Original Simulation       11  30  2004 Yr    2 of   20 Time  15:10: 7
  Original Simulation       12   1  2004 Yr    2 of   20 Time  15:10: 8
  Original Simulation       12   2  2004 Yr    2 of   20 Time  15:10: 8
  Original Simulation       12   3  2004 Yr    2 of   20 Time  15:10: 9
  Original Simulation       12   4  2004 Yr    2 of   20 Time  15:10: 9
  Original Simulation       12   5  2004 Yr    2 of   20 Time  15:10:10
  Original Simulation       12   6  2004 Yr    2 of   20 Time  15:10:10
  Original Simulation       12   7  2004 Yr    2 of   20 Time  15:10:11
  Original Simulation       12   8  2004 Yr    2 of   20 Time  15:10:11
  Original Simulation       12   9  2004 Yr    2 of   20 Time  15:10:12
  Original Simulation       12  10  2004 Yr    2 of   20 Time  15:10:12
  Original Simulation       12  11  2004 Yr    2 of   20 Time  15:10:13
  Original Simulation       12  12  2004 Yr    2 of   20 Time  15:10:13
  Original Simulation       12  13  2004 Yr    2 of   20 Time  15:10:13
  Original Simulation       12  14  2004 Yr    2 of   20 Time  15:10:14
  Original Simulation       12  15  2004 Yr    2 of   20 Time  15:10:14
  Original Simulation       12  16  2004 Yr    2 of   20 Time  15:10:15
  Original Simulation       12  17  2004 Yr    2 of   20 Time  15:10:15
  Original Simulation       12  18  2004 Yr    2 of   20 Time  15:10:16
  Original Simulation       12  19  2004 Yr    2 of   20 Time  15:10:16
  Original Simulation       12  20  2004 Yr    2 of   20 Time  15:10:17
  Original Simulation       12  21  2004 Yr    2 of   20 Time  15:10:17
  Original Simulation       12  22  2004 Yr    2 of   20 Time  15:10:18
  Original Simulation       12  23  2004 Yr    2 of   20 Time  15:10:18
  Original Simulation       12  24  2004 Yr    2 of   20 Time  15:10:19
  Original Simulation       12  25  2004 Yr    2 of   20 Time  15:10:19
  Original Simulation       12  26  2004 Yr    2 of   20 Time  15:10:20
  Original Simulation       12  27  2004 Yr    2 of   20 Time  15:10:20
  Original Simulation       12  28  2004 Yr    2 of   20 Time  15:10:21
  Original Simulation       12  29  2004 Yr    2 of   20 Time  15:10:21
  Original Simulation       12  30  2004 Yr    2 of   20 Time  15:10:22
  Original Simulation       12  31  2004 Yr    2 of   20 Time  15:10:22
  Original Simulation        1   1  2005 Yr    3 of   20 Time  15:10:23
  Original Simulation        1   2  2005 Yr    3 of   20 Time  15:10:23
  Original Simulation        1   3  2005 Yr    3 of   20 Time  15:10:24
  Original Simulation        1   4  2005 Yr    3 of   20 Time  15:10:24
  Original Simulation        1   5  2005 Yr    3 of   20 Time  15:10:25
  Original Simulation        1   6  2005 Yr    3 of   20 Time  15:10:25
  Original Simulation        1   7  2005 Yr    3 of   20 Time  15:10:26
  Original Simulation        1   8  2005 Yr    3 of   20 Time  15:10:26
  Original Simulation        1   9  2005 Yr    3 of   20 Time  15:10:27
  Original Simulation        1  10  2005 Yr    3 of   20 Time  15:10:27
  Original Simulation        1  11  2005 Yr    3 of   20 Time  15:10:27
  Original Simulation        1  12  2005 Yr    3 of   20 Time  15:10:28
  Original Simulation        1  13  2005 Yr    3 of   20 Time  15:10:28
  Original Simulation        1  14  2005 Yr    3 of   20 Time  15:10:29
  Original Simulation        1  15  2005 Yr    3 of   20 Time  15:10:29
  Original Simulation        1  16  2005 Yr    3 of   20 Time  15:10:30
  Original Simulation        1  17  2005 Yr    3 of   20 Time  15:10:30
  Original Simulation        1  18  2005 Yr    3 of   20 Time  15:10:31
  Original Simulation        1  19  2005 Yr    3 of   20 Time  15:10:31
  Original Simulation        1  20  2005 Yr    3 of   20 Time  15:10:32
  Original Simulation        1  21  2005 Yr    3 of   20 Time  15:10:32
  Original Simulation        1  22  2005 Yr    3 of   20 Time  15:10:33
  Original Simulation        1  23  2005 Yr    3 of   20 Time  15:10:33
  Original Simulation        1  24  2005 Yr    3 of   20 Time  15:10:34
  Original Simulation        1  25  2005 Yr    3 of   20 Time  15:10:34
  Original Simulation        1  26  2005 Yr    3 of   20 Time  15:10:35
  Original Simulation        1  27  2005 Yr    3 of   20 Time  15:10:35
  Original Simulation        1  28  2005 Yr    3 of   20 Time  15:10:36
  Original Simulation        1  29  2005 Yr    3 of   20 Time  15:10:36
  Original Simulation        1  30  2005 Yr    3 of   20 Time  15:10:36
  Original Simulation        1  31  2005 Yr    3 of   20 Time  15:10:37
  Original Simulation        2   1  2005 Yr    3 of   20 Time  15:10:37
  Original Simulation        2   2  2005 Yr    3 of   20 Time  15:10:38
  Original Simulation        2   3  2005 Yr    3 of   20 Time  15:10:38
  Original Simulation        2   4  2005 Yr    3 of   20 Time  15:10:39
  Original Simulation        2   5  2005 Yr    3 of   20 Time  15:10:39
  Original Simulation        2   6  2005 Yr    3 of   20 Time  15:10:40
  Original Simulation        2   7  2005 Yr    3 of   20 Time  15:10:40
  Original Simulation        2   8  2005 Yr    3 of   20 Time  15:10:41
  Original Simulation        2   9  2005 Yr    3 of   20 Time  15:10:41
  Original Simulation        2  10  2005 Yr    3 of   20 Time  15:10:42
  Original Simulation        2  11  2005 Yr    3 of   20 Time  15:10:42
  Original Simulation        2  12  2005 Yr    3 of   20 Time  15:10:43
  Original Simulation        2  13  2005 Yr    3 of   20 Time  15:10:43
  Original Simulation        2  14  2005 Yr    3 of   20 Time  15:10:44
  Original Simulation        2  15  2005 Yr    3 of   20 Time  15:10:44
  Original Simulation        2  16  2005 Yr    3 of   20 Time  15:10:45
  Original Simulation        2  17  2005 Yr    3 of   20 Time  15:10:45
  Original Simulation        2  18  2005 Yr    3 of   20 Time  15:10:45
  Original Simulation        2  19  2005 Yr    3 of   20 Time  15:10:46
  Original Simulation        2  20  2005 Yr    3 of   20 Time  15:10:46
  Original Simulation        2  21  2005 Yr    3 of   20 Time  15:10:47
  Original Simulation        2  22  2005 Yr    3 of   20 Time  15:10:47
  Original Simulation        2  23  2005 Yr    3 of   20 Time  15:10:48
  Original Simulation        2  24  2005 Yr    3 of   20 Time  15:10:48
  Original Simulation        2  25  2005 Yr    3 of   20 Time  15:10:49
  Original Simulation        2  26  2005 Yr    3 of   20 Time  15:10:49
  Original Simulation        2  27  2005 Yr    3 of   20 Time  15:10:50
  Original Simulation        2  28  2005 Yr    3 of   20 Time  15:10:50
  Original Simulation        3   1  2005 Yr    3 of   20 Time  15:10:51
  Original Simulation        3   2  2005 Yr    3 of   20 Time  15:10:51
  Original Simulation        3   3  2005 Yr    3 of   20 Time  15:10:52
  Original Simulation        3   4  2005 Yr    3 of   20 Time  15:10:52
  Original Simulation        3   5  2005 Yr    3 of   20 Time  15:10:53
  Original Simulation        3   6  2005 Yr    3 of   20 Time  15:10:53
  Original Simulation        3   7  2005 Yr    3 of   20 Time  15:10:54
  Original Simulation        3   8  2005 Yr    3 of   20 Time  15:10:54
  Original Simulation        3   9  2005 Yr    3 of   20 Time  15:10:54
  Original Simulation        3  10  2005 Yr    3 of   20 Time  15:10:55
  Original Simulation        3  11  2005 Yr    3 of   20 Time  15:10:55
  Original Simulation        3  12  2005 Yr    3 of   20 Time  15:10:56
  Original Simulation        3  13  2005 Yr    3 of   20 Time  15:10:56
  Original Simulation        3  14  2005 Yr    3 of   20 Time  15:10:57
  Original Simulation        3  15  2005 Yr    3 of   20 Time  15:10:57
  Original Simulation        3  16  2005 Yr    3 of   20 Time  15:10:58
  Original Simulation        3  17  2005 Yr    3 of   20 Time  15:10:58
  Original Simulation        3  18  2005 Yr    3 of   20 Time  15:10:59
  Original Simulation        3  19  2005 Yr    3 of   20 Time  15:10:59
  Original Simulation        3  20  2005 Yr    3 of   20 Time  15:11: 0
  Original Simulation        3  21  2005 Yr    3 of   20 Time  15:11: 0
  Original Simulation        3  22  2005 Yr    3 of   20 Time  15:11: 1
  Original Simulation        3  23  2005 Yr    3 of   20 Time  15:11: 1
  Original Simulation        3  24  2005 Yr    3 of   20 Time  15:11: 2
  Original Simulation        3  25  2005 Yr    3 of   20 Time  15:11: 2
  Original Simulation        3  26  2005 Yr    3 of   20 Time  15:11: 3
  Original Simulation        3  27  2005 Yr    3 of   20 Time  15:11: 3
  Original Simulation        3  28  2005 Yr    3 of   20 Time  15:11: 3
  Original Simulation        3  29  2005 Yr    3 of   20 Time  15:11: 4
  Original Simulation        3  30  2005 Yr    3 of   20 Time  15:11: 4
  Original Simulation        3  31  2005 Yr    3 of   20 Time  15:11: 5
  Original Simulation        4   1  2005 Yr    3 of   20 Time  15:11: 5
  Original Simulation        4   2  2005 Yr    3 of   20 Time  15:11: 6
  Original Simulation        4   3  2005 Yr    3 of   20 Time  15:11: 6
  Original Simulation        4   4  2005 Yr    3 of   20 Time  15:11: 7
  Original Simulation        4   5  2005 Yr    3 of   20 Time  15:11: 7
  Original Simulation        4   6  2005 Yr    3 of   20 Time  15:11: 8
  Original Simulation        4   7  2005 Yr    3 of   20 Time  15:11: 8
  Original Simulation        4   8  2005 Yr    3 of   20 Time  15:11: 9
  Original Simulation        4   9  2005 Yr    3 of   20 Time  15:11: 9
  Original Simulation        4  10  2005 Yr    3 of   20 Time  15:11:10
  Original Simulation        4  11  2005 Yr    3 of   20 Time  15:11:10
  Original Simulation        4  12  2005 Yr    3 of   20 Time  15:11:11
  Original Simulation        4  13  2005 Yr    3 of   20 Time  15:11:11
  Original Simulation        4  14  2005 Yr    3 of   20 Time  15:11:12
  Original Simulation        4  15  2005 Yr    3 of   20 Time  15:11:12
  Original Simulation        4  16  2005 Yr    3 of   20 Time  15:11:13
  Original Simulation        4  17  2005 Yr    3 of   20 Time  15:11:13
  Original Simulation        4  18  2005 Yr    3 of   20 Time  15:11:14
  Original Simulation        4  19  2005 Yr    3 of   20 Time  15:11:14
  Original Simulation        4  20  2005 Yr    3 of   20 Time  15:11:15
  Original Simulation        4  21  2005 Yr    3 of   20 Time  15:11:15
  Original Simulation        4  22  2005 Yr    3 of   20 Time  15:11:16
  Original Simulation        4  23  2005 Yr    3 of   20 Time  15:11:16
  Original Simulation        4  24  2005 Yr    3 of   20 Time  15:11:16
  Original Simulation        4  25  2005 Yr    3 of   20 Time  15:11:17
  Original Simulation        4  26  2005 Yr    3 of   20 Time  15:11:17
  Original Simulation        4  27  2005 Yr    3 of   20 Time  15:11:18
  Original Simulation        4  28  2005 Yr    3 of   20 Time  15:11:18
  Original Simulation        4  29  2005 Yr    3 of   20 Time  15:11:19
  Original Simulation        4  30  2005 Yr    3 of   20 Time  15:11:19
  Original Simulation        5   1  2005 Yr    3 of   20 Time  15:11:20
  Original Simulation        5   2  2005 Yr    3 of   20 Time  15:11:20
  Original Simulation        5   3  2005 Yr    3 of   20 Time  15:11:21
  Original Simulation        5   4  2005 Yr    3 of   20 Time  15:11:21
  Original Simulation        5   5  2005 Yr    3 of   20 Time  15:11:22
  Original Simulation        5   6  2005 Yr    3 of   20 Time  15:11:22
  Original Simulation        5   7  2005 Yr    3 of   20 Time  15:11:23
  Original Simulation        5   8  2005 Yr    3 of   20 Time  15:11:23
  Original Simulation        5   9  2005 Yr    3 of   20 Time  15:11:24
  Original Simulation        5  10  2005 Yr    3 of   20 Time  15:11:24
  Original Simulation        5  11  2005 Yr    3 of   20 Time  15:11:25
  Original Simulation        5  12  2005 Yr    3 of   20 Time  15:11:25
  Original Simulation        5  13  2005 Yr    3 of   20 Time  15:11:26
  Original Simulation        5  14  2005 Yr    3 of   20 Time  15:11:26
  Original Simulation        5  15  2005 Yr    3 of   20 Time  15:11:27
  Original Simulation        5  16  2005 Yr    3 of   20 Time  15:11:27
  Original Simulation        5  17  2005 Yr    3 of   20 Time  15:11:27
  Original Simulation        5  18  2005 Yr    3 of   20 Time  15:11:28
  Original Simulation        5  19  2005 Yr    3 of   20 Time  15:11:28
  Original Simulation        5  20  2005 Yr    3 of   20 Time  15:11:29
  Original Simulation        5  21  2005 Yr    3 of   20 Time  15:11:29
  Original Simulation        5  22  2005 Yr    3 of   20 Time  15:11:30
  Original Simulation        5  23  2005 Yr    3 of   20 Time  15:11:30
  Original Simulation        5  24  2005 Yr    3 of   20 Time  15:11:31
  Original Simulation        5  25  2005 Yr    3 of   20 Time  15:11:31
  Original Simulation        5  26  2005 Yr    3 of   20 Time  15:11:32
  Original Simulation        5  27  2005 Yr    3 of   20 Time  15:11:32
  Original Simulation        5  28  2005 Yr    3 of   20 Time  15:11:33
  Original Simulation        5  29  2005 Yr    3 of   20 Time  15:11:33
  Original Simulation        5  30  2005 Yr    3 of   20 Time  15:11:34
  Original Simulation        5  31  2005 Yr    3 of   20 Time  15:11:34
  Original Simulation        6   1  2005 Yr    3 of   20 Time  15:11:35
  Original Simulation        6   2  2005 Yr    3 of   20 Time  15:11:35
  Original Simulation        6   3  2005 Yr    3 of   20 Time  15:11:36
  Original Simulation        6   4  2005 Yr    3 of   20 Time  15:11:36
  Original Simulation        6   5  2005 Yr    3 of   20 Time  15:11:37
  Original Simulation        6   6  2005 Yr    3 of   20 Time  15:11:37
  Original Simulation        6   7  2005 Yr    3 of   20 Time  15:11:38
  Original Simulation        6   8  2005 Yr    3 of   20 Time  15:11:38
  Original Simulation        6   9  2005 Yr    3 of   20 Time  15:11:38
  Original Simulation        6  10  2005 Yr    3 of   20 Time  15:11:39
  Original Simulation        6  11  2005 Yr    3 of   20 Time  15:11:39
  Original Simulation        6  12  2005 Yr    3 of   20 Time  15:11:40
  Original Simulation        6  13  2005 Yr    3 of   20 Time  15:11:40
  Original Simulation        6  14  2005 Yr    3 of   20 Time  15:11:41
  Original Simulation        6  15  2005 Yr    3 of   20 Time  15:11:41
  Original Simulation        6  16  2005 Yr    3 of   20 Time  15:11:42
  Original Simulation        6  17  2005 Yr    3 of   20 Time  15:11:42
  Original Simulation        6  18  2005 Yr    3 of   20 Time  15:11:43
  Original Simulation        6  19  2005 Yr    3 of   20 Time  15:11:43
  Original Simulation        6  20  2005 Yr    3 of   20 Time  15:11:44
  Original Simulation        6  21  2005 Yr    3 of   20 Time  15:11:44
  Original Simulation        6  22  2005 Yr    3 of   20 Time  15:11:45
  Original Simulation        6  23  2005 Yr    3 of   20 Time  15:11:45
  Original Simulation        6  24  2005 Yr    3 of   20 Time  15:11:46
  Original Simulation        6  25  2005 Yr    3 of   20 Time  15:11:46
  Original Simulation        6  26  2005 Yr    3 of   20 Time  15:11:47
  Original Simulation        6  27  2005 Yr    3 of   20 Time  15:11:47
  Original Simulation        6  28  2005 Yr    3 of   20 Time  15:11:48
  Original Simulation        6  29  2005 Yr    3 of   20 Time  15:11:48
  Original Simulation        6  30  2005 Yr    3 of   20 Time  15:11:49
  Original Simulation        7   1  2005 Yr    3 of   20 Time  15:11:49
  Original Simulation        7   2  2005 Yr    3 of   20 Time  15:11:50
  Original Simulation        7   3  2005 Yr    3 of   20 Time  15:11:50
  Original Simulation        7   4  2005 Yr    3 of   20 Time  15:11:51
  Original Simulation        7   5  2005 Yr    3 of   20 Time  15:11:51
  Original Simulation        7   6  2005 Yr    3 of   20 Time  15:11:52
  Original Simulation        7   7  2005 Yr    3 of   20 Time  15:11:52
  Original Simulation        7   8  2005 Yr    3 of   20 Time  15:11:53
  Original Simulation        7   9  2005 Yr    3 of   20 Time  15:11:53
  Original Simulation        7  10  2005 Yr    3 of   20 Time  15:11:53
  Original Simulation        7  11  2005 Yr    3 of   20 Time  15:11:54
  Original Simulation        7  12  2005 Yr    3 of   20 Time  15:11:54
  Original Simulation        7  13  2005 Yr    3 of   20 Time  15:11:55
  Original Simulation        7  14  2005 Yr    3 of   20 Time  15:11:55
  Original Simulation        7  15  2005 Yr    3 of   20 Time  15:11:56
  Original Simulation        7  16  2005 Yr    3 of   20 Time  15:11:56
  Original Simulation        7  17  2005 Yr    3 of   20 Time  15:11:57
  Original Simulation        7  18  2005 Yr    3 of   20 Time  15:11:57
  Original Simulation        7  19  2005 Yr    3 of   20 Time  15:11:58
  Original Simulation        7  20  2005 Yr    3 of   20 Time  15:11:58
  Original Simulation        7  21  2005 Yr    3 of   20 Time  15:11:59
  Original Simulation        7  22  2005 Yr    3 of   20 Time  15:11:59
  Original Simulation        7  23  2005 Yr    3 of   20 Time  15:12: 0
  Original Simulation        7  24  2005 Yr    3 of   20 Time  15:12: 0
  Original Simulation        7  25  2005 Yr    3 of   20 Time  15:12: 1
  Original Simulation        7  26  2005 Yr    3 of   20 Time  15:12: 1
  Original Simulation        7  27  2005 Yr    3 of   20 Time  15:12: 2
  Original Simulation        7  28  2005 Yr    3 of   20 Time  15:12: 2
  Original Simulation        7  29  2005 Yr    3 of   20 Time  15:12: 3
  Original Simulation        7  30  2005 Yr    3 of   20 Time  15:12: 3
  Original Simulation        7  31  2005 Yr    3 of   20 Time  15:12: 4
  Original Simulation        8   1  2005 Yr    3 of   20 Time  15:12: 4
  Original Simulation        8   2  2005 Yr    3 of   20 Time  15:12: 5
  Original Simulation        8   3  2005 Yr    3 of   20 Time  15:12: 5
  Original Simulation        8   4  2005 Yr    3 of   20 Time  15:12: 6
  Original Simulation        8   5  2005 Yr    3 of   20 Time  15:12: 6
  Original Simulation        8   6  2005 Yr    3 of   20 Time  15:12: 6
  Original Simulation        8   7  2005 Yr    3 of   20 Time  15:12: 7
  Original Simulation        8   8  2005 Yr    3 of   20 Time  15:12: 7
  Original Simulation        8   9  2005 Yr    3 of   20 Time  15:12: 8
  Original Simulation        8  10  2005 Yr    3 of   20 Time  15:12: 8
  Original Simulation        8  11  2005 Yr    3 of   20 Time  15:12: 9
  Original Simulation        8  12  2005 Yr    3 of   20 Time  15:12: 9
  Original Simulation        8  13  2005 Yr    3 of   20 Time  15:12:10
  Original Simulation        8  14  2005 Yr    3 of   20 Time  15:12:10
  Original Simulation        8  15  2005 Yr    3 of   20 Time  15:12:11
  Original Simulation        8  16  2005 Yr    3 of   20 Time  15:12:11
  Original Simulation        8  17  2005 Yr    3 of   20 Time  15:12:12
  Original Simulation        8  18  2005 Yr    3 of   20 Time  15:12:12
  Original Simulation        8  19  2005 Yr    3 of   20 Time  15:12:13
  Original Simulation        8  20  2005 Yr    3 of   20 Time  15:12:13
  Original Simulation        8  21  2005 Yr    3 of   20 Time  15:12:14
  Original Simulation        8  22  2005 Yr    3 of   20 Time  15:12:14
  Original Simulation        8  23  2005 Yr    3 of   20 Time  15:12:15
  Original Simulation        8  24  2005 Yr    3 of   20 Time  15:12:15
  Original Simulation        8  25  2005 Yr    3 of   20 Time  15:12:16
  Original Simulation        8  26  2005 Yr    3 of   20 Time  15:12:16
  Original Simulation        8  27  2005 Yr    3 of   20 Time  15:12:16
  Original Simulation        8  28  2005 Yr    3 of   20 Time  15:12:17
  Original Simulation        8  29  2005 Yr    3 of   20 Time  15:12:17
  Original Simulation        8  30  2005 Yr    3 of   20 Time  15:12:18
  Original Simulation        8  31  2005 Yr    3 of   20 Time  15:12:18
  Original Simulation        9   1  2005 Yr    3 of   20 Time  15:12:19
  Original Simulation        9   2  2005 Yr    3 of   20 Time  15:12:19
  Original Simulation        9   3  2005 Yr    3 of   20 Time  15:12:20
  Original Simulation        9   4  2005 Yr    3 of   20 Time  15:12:20
  Original Simulation        9   5  2005 Yr    3 of   20 Time  15:12:21
  Original Simulation        9   6  2005 Yr    3 of   20 Time  15:12:21
  Original Simulation        9   7  2005 Yr    3 of   20 Time  15:12:22
  Original Simulation        9   8  2005 Yr    3 of   20 Time  15:12:22
  Original Simulation        9   9  2005 Yr    3 of   20 Time  15:12:23
  Original Simulation        9  10  2005 Yr    3 of   20 Time  15:12:23
  Original Simulation        9  11  2005 Yr    3 of   20 Time  15:12:24
  Original Simulation        9  12  2005 Yr    3 of   20 Time  15:12:24
  Original Simulation        9  13  2005 Yr    3 of   20 Time  15:12:25
  Original Simulation        9  14  2005 Yr    3 of   20 Time  15:12:25
  Original Simulation        9  15  2005 Yr    3 of   20 Time  15:12:26
  Original Simulation        9  16  2005 Yr    3 of   20 Time  15:12:26
  Original Simulation        9  17  2005 Yr    3 of   20 Time  15:12:26
  Original Simulation        9  18  2005 Yr    3 of   20 Time  15:12:27
  Original Simulation        9  19  2005 Yr    3 of   20 Time  15:12:27
  Original Simulation        9  20  2005 Yr    3 of   20 Time  15:12:28
  Original Simulation        9  21  2005 Yr    3 of   20 Time  15:12:28
  Original Simulation        9  22  2005 Yr    3 of   20 Time  15:12:29
  Original Simulation        9  23  2005 Yr    3 of   20 Time  15:12:29
  Original Simulation        9  24  2005 Yr    3 of   20 Time  15:12:30
  Original Simulation        9  25  2005 Yr    3 of   20 Time  15:12:30
  Original Simulation        9  26  2005 Yr    3 of   20 Time  15:12:31
  Original Simulation        9  27  2005 Yr    3 of   20 Time  15:12:31
  Original Simulation        9  28  2005 Yr    3 of   20 Time  15:12:32
  Original Simulation        9  29  2005 Yr    3 of   20 Time  15:12:32
  Original Simulation        9  30  2005 Yr    3 of   20 Time  15:12:33
  Original Simulation       10   1  2005 Yr    3 of   20 Time  15:12:33
  Original Simulation       10   2  2005 Yr    3 of   20 Time  15:12:34
  Original Simulation       10   3  2005 Yr    3 of   20 Time  15:12:34
  Original Simulation       10   4  2005 Yr    3 of   20 Time  15:12:35
  Original Simulation       10   5  2005 Yr    3 of   20 Time  15:12:35
  Original Simulation       10   6  2005 Yr    3 of   20 Time  15:12:36
  Original Simulation       10   7  2005 Yr    3 of   20 Time  15:12:36
  Original Simulation       10   8  2005 Yr    3 of   20 Time  15:12:37
  Original Simulation       10   9  2005 Yr    3 of   20 Time  15:12:37
  Original Simulation       10  10  2005 Yr    3 of   20 Time  15:12:38
  Original Simulation       10  11  2005 Yr    3 of   20 Time  15:12:38
  Original Simulation       10  12  2005 Yr    3 of   20 Time  15:12:38
  Original Simulation       10  13  2005 Yr    3 of   20 Time  15:12:39
  Original Simulation       10  14  2005 Yr    3 of   20 Time  15:12:39
  Original Simulation       10  15  2005 Yr    3 of   20 Time  15:12:40
  Original Simulation       10  16  2005 Yr    3 of   20 Time  15:12:40
  Original Simulation       10  17  2005 Yr    3 of   20 Time  15:12:41
  Original Simulation       10  18  2005 Yr    3 of   20 Time  15:12:41
  Original Simulation       10  19  2005 Yr    3 of   20 Time  15:12:42
  Original Simulation       10  20  2005 Yr    3 of   20 Time  15:12:42
  Original Simulation       10  21  2005 Yr    3 of   20 Time  15:12:43
  Original Simulation       10  22  2005 Yr    3 of   20 Time  15:12:43
  Original Simulation       10  23  2005 Yr    3 of   20 Time  15:12:44
  Original Simulation       10  24  2005 Yr    3 of   20 Time  15:12:44
  Original Simulation       10  25  2005 Yr    3 of   20 Time  15:12:45
  Original Simulation       10  26  2005 Yr    3 of   20 Time  15:12:45
  Original Simulation       10  27  2005 Yr    3 of   20 Time  15:12:46
  Original Simulation       10  28  2005 Yr    3 of   20 Time  15:12:46
  Original Simulation       10  29  2005 Yr    3 of   20 Time  15:12:47
  Original Simulation       10  30  2005 Yr    3 of   20 Time  15:12:47
  Original Simulation       10  31  2005 Yr    3 of   20 Time  15:12:48
  Original Simulation       11   1  2005 Yr    3 of   20 Time  15:12:48
  Original Simulation       11   2  2005 Yr    3 of   20 Time  15:12:49
  Original Simulation       11   3  2005 Yr    3 of   20 Time  15:12:49
  Original Simulation       11   4  2005 Yr    3 of   20 Time  15:12:50
  Original Simulation       11   5  2005 Yr    3 of   20 Time  15:12:50
  Original Simulation       11   6  2005 Yr    3 of   20 Time  15:12:50
  Original Simulation       11   7  2005 Yr    3 of   20 Time  15:12:51
  Original Simulation       11   8  2005 Yr    3 of   20 Time  15:12:51
  Original Simulation       11   9  2005 Yr    3 of   20 Time  15:12:52
  Original Simulation       11  10  2005 Yr    3 of   20 Time  15:12:52
  Original Simulation       11  11  2005 Yr    3 of   20 Time  15:12:53
  Original Simulation       11  12  2005 Yr    3 of   20 Time  15:12:53
  Original Simulation       11  13  2005 Yr    3 of   20 Time  15:12:54
  Original Simulation       11  14  2005 Yr    3 of   20 Time  15:12:54
  Original Simulation       11  15  2005 Yr    3 of   20 Time  15:12:55
  Original Simulation       11  16  2005 Yr    3 of   20 Time  15:12:55
  Original Simulation       11  17  2005 Yr    3 of   20 Time  15:12:56
  Original Simulation       11  18  2005 Yr    3 of   20 Time  15:12:56
  Original Simulation       11  19  2005 Yr    3 of   20 Time  15:12:57
  Original Simulation       11  20  2005 Yr    3 of   20 Time  15:12:57
  Original Simulation       11  21  2005 Yr    3 of   20 Time  15:12:58
  Original Simulation       11  22  2005 Yr    3 of   20 Time  15:12:58
  Original Simulation       11  23  2005 Yr    3 of   20 Time  15:12:59
  Original Simulation       11  24  2005 Yr    3 of   20 Time  15:12:59
  Original Simulation       11  25  2005 Yr    3 of   20 Time  15:12:59
  Original Simulation       11  26  2005 Yr    3 of   20 Time  15:13: 0
  Original Simulation       11  27  2005 Yr    3 of   20 Time  15:13: 0
  Original Simulation       11  28  2005 Yr    3 of   20 Time  15:13: 1
  Original Simulation       11  29  2005 Yr    3 of   20 Time  15:13: 1
  Original Simulation       11  30  2005 Yr    3 of   20 Time  15:13: 2
  Original Simulation       12   1  2005 Yr    3 of   20 Time  15:13: 2
  Original Simulation       12   2  2005 Yr    3 of   20 Time  15:13: 3
  Original Simulation       12   3  2005 Yr    3 of   20 Time  15:13: 3
  Original Simulation       12   4  2005 Yr    3 of   20 Time  15:13: 4
  Original Simulation       12   5  2005 Yr    3 of   20 Time  15:13: 4
  Original Simulation       12   6  2005 Yr    3 of   20 Time  15:13: 5
  Original Simulation       12   7  2005 Yr    3 of   20 Time  15:13: 5
  Original Simulation       12   8  2005 Yr    3 of   20 Time  15:13: 6
  Original Simulation       12   9  2005 Yr    3 of   20 Time  15:13: 6
  Original Simulation       12  10  2005 Yr    3 of   20 Time  15:13: 7
  Original Simulation       12  11  2005 Yr    3 of   20 Time  15:13: 7
  Original Simulation       12  12  2005 Yr    3 of   20 Time  15:13: 8
  Original Simulation       12  13  2005 Yr    3 of   20 Time  15:13: 8
  Original Simulation       12  14  2005 Yr    3 of   20 Time  15:13: 8
  Original Simulation       12  15  2005 Yr    3 of   20 Time  15:13: 9
  Original Simulation       12  16  2005 Yr    3 of   20 Time  15:13: 9
  Original Simulation       12  17  2005 Yr    3 of   20 Time  15:13:10
  Original Simulation       12  18  2005 Yr    3 of   20 Time  15:13:10
  Original Simulation       12  19  2005 Yr    3 of   20 Time  15:13:11
  Original Simulation       12  20  2005 Yr    3 of   20 Time  15:13:11
  Original Simulation       12  21  2005 Yr    3 of   20 Time  15:13:12
  Original Simulation       12  22  2005 Yr    3 of   20 Time  15:13:12
  Original Simulation       12  23  2005 Yr    3 of   20 Time  15:13:13
  Original Simulation       12  24  2005 Yr    3 of   20 Time  15:13:13
  Original Simulation       12  25  2005 Yr    3 of   20 Time  15:13:14
  Original Simulation       12  26  2005 Yr    3 of   20 Time  15:13:14
  Original Simulation       12  27  2005 Yr    3 of   20 Time  15:13:15
  Original Simulation       12  28  2005 Yr    3 of   20 Time  15:13:15
  Original Simulation       12  29  2005 Yr    3 of   20 Time  15:13:16
  Original Simulation       12  30  2005 Yr    3 of   20 Time  15:13:16
  Original Simulation       12  31  2005 Yr    3 of   20 Time  15:13:16
  Original Simulation        1   1  2006 Yr    4 of   20 Time  15:13:17
  Original Simulation        1   2  2006 Yr    4 of   20 Time  15:13:18
  Original Simulation        1   3  2006 Yr    4 of   20 Time  15:13:18
  Original Simulation        1   4  2006 Yr    4 of   20 Time  15:13:19
  Original Simulation        1   5  2006 Yr    4 of   20 Time  15:13:19
  Original Simulation        1   6  2006 Yr    4 of   20 Time  15:13:20
[...]
  Original Simulation        3  31  2022 Yr   20 of   20 Time  16: 3: 2
  Original Simulation        4   1  2022 Yr   20 of   20 Time  16: 3: 2
  Original Simulation        4   2  2022 Yr   20 of   20 Time  16: 3: 3
  Original Simulation        4   3  2022 Yr   20 of   20 Time  16: 3: 3
  Original Simulation        4   4  2022 Yr   20 of   20 Time  16: 3: 4
  Original Simulation        4   5  2022 Yr   20 of   20 Time  16: 3: 4
  Original Simulation        4   6  2022 Yr   20 of   20 Time  16: 3: 5
  Original Simulation        4   7  2022 Yr   20 of   20 Time  16: 3: 5
  Original Simulation        4   8  2022 Yr   20 of   20 Time  16: 3: 6
  Original Simulation        4   9  2022 Yr   20 of   20 Time  16: 3: 6
  Original Simulation        4  10  2022 Yr   20 of   20 Time  16: 3: 7
  Original Simulation        4  11  2022 Yr   20 of   20 Time  16: 3: 8
  Original Simulation        4  12  2022 Yr   20 of   20 Time  16: 3: 8
  Original Simulation        4  13  2022 Yr   20 of   20 Time  16: 3: 9
  Original Simulation        4  14  2022 Yr   20 of   20 Time  16: 3: 9
  Original Simulation        4  15  2022 Yr   20 of   20 Time  16: 3:10
  Original Simulation        4  16  2022 Yr   20 of   20 Time  16: 3:10
  Original Simulation        4  17  2022 Yr   20 of   20 Time  16: 3:11
  Original Simulation        4  18  2022 Yr   20 of   20 Time  16: 3:11
  Original Simulation        4  19  2022 Yr   20 of   20 Time  16: 3:12
  Original Simulation        4  20  2022 Yr   20 of   20 Time  16: 3:12
  Original Simulation        4  21  2022 Yr   20 of   20 Time  16: 3:13
  Original Simulation        4  22  2022 Yr   20 of   20 Time  16: 3:13
  Original Simulation        4  23  2022 Yr   20 of   20 Time  16: 3:14
  Original Simulation        4  24  2022 Yr   20 of   20 Time  16: 3:14
  Original Simulation        4  25  2022 Yr   20 of   20 Time  16: 3:15
  Original Simulation        4  26  2022 Yr   20 of   20 Time  16: 3:15
  Original Simulation        4  27  2022 Yr   20 of   20 Time  16: 3:16
  Original Simulation        4  28  2022 Yr   20 of   20 Time  16: 3:16
  Original Simulation        4  29  2022 Yr   20 of   20 Time  16: 3:17
  Original Simulation        4  30  2022 Yr   20 of   20 Time  16: 3:17
  Original Simulation        5   1  2022 Yr   20 of   20 Time  16: 3:18
  Original Simulation        5   2  2022 Yr   20 of   20 Time  16: 3:18
  Original Simulation        5   3  2022 Yr   20 of   20 Time  16: 3:19
  Original Simulation        5   4  2022 Yr   20 of   20 Time  16: 3:19
  Original Simulation        5   5  2022 Yr   20 of   20 Time  16: 3:20
  Original Simulation        5   6  2022 Yr   20 of   20 Time  16: 3:20
  Original Simulation        5   7  2022 Yr   20 of   20 Time  16: 3:21
  Original Simulation        5   8  2022 Yr   20 of   20 Time  16: 3:21
  Original Simulation        5   9  2022 Yr   20 of   20 Time  16: 3:22
  Original Simulation        5  10  2022 Yr   20 of   20 Time  16: 3:22
  Original Simulation        5  11  2022 Yr   20 of   20 Time  16: 3:23
  Original Simulation        5  12  2022 Yr   20 of   20 Time  16: 3:23
  Original Simulation        5  13  2022 Yr   20 of   20 Time  16: 3:24
  Original Simulation        5  14  2022 Yr   20 of   20 Time  16: 3:24
  Original Simulation        5  15  2022 Yr   20 of   20 Time  16: 3:25
  Original Simulation        5  16  2022 Yr   20 of   20 Time  16: 3:26
  Original Simulation        5  17  2022 Yr   20 of   20 Time  16: 3:26
  Original Simulation        5  18  2022 Yr   20 of   20 Time  16: 3:27
  Original Simulation        5  19  2022 Yr   20 of   20 Time  16: 3:27
  Original Simulation        5  20  2022 Yr   20 of   20 Time  16: 3:28
  Original Simulation        5  21  2022 Yr   20 of   20 Time  16: 3:28
  Original Simulation        5  22  2022 Yr   20 of   20 Time  16: 3:29
  Original Simulation        5  23  2022 Yr   20 of   20 Time  16: 3:29
  Original Simulation        5  24  2022 Yr   20 of   20 Time  16: 3:30
  Original Simulation        5  25  2022 Yr   20 of   20 Time  16: 3:30
  Original Simulation        5  26  2022 Yr   20 of   20 Time  16: 3:31
  Original Simulation        5  27  2022 Yr   20 of   20 Time  16: 3:31
  Original Simulation        5  28  2022 Yr   20 of   20 Time  16: 3:32
  Original Simulation        5  29  2022 Yr   20 of   20 Time  16: 3:32
  Original Simulation        5  30  2022 Yr   20 of   20 Time  16: 3:33
  Original Simulation        5  31  2022 Yr   20 of   20 Time  16: 3:33
  Original Simulation        6   1  2022 Yr   20 of   20 Time  16: 3:34
  Original Simulation        6   2  2022 Yr   20 of   20 Time  16: 3:34
  Original Simulation        6   3  2022 Yr   20 of   20 Time  16: 3:35
  Original Simulation        6   4  2022 Yr   20 of   20 Time  16: 3:35
  Original Simulation        6   5  2022 Yr   20 of   20 Time  16: 3:36
  Original Simulation        6   6  2022 Yr   20 of   20 Time  16: 3:36
  Original Simulation        6   7  2022 Yr   20 of   20 Time  16: 3:37
  Original Simulation        6   8  2022 Yr   20 of   20 Time  16: 3:37
  Original Simulation        6   9  2022 Yr   20 of   20 Time  16: 3:38
  Original Simulation        6  10  2022 Yr   20 of   20 Time  16: 3:38
  Original Simulation        6  11  2022 Yr   20 of   20 Time  16: 3:39
  Original Simulation        6  12  2022 Yr   20 of   20 Time  16: 3:39
  Original Simulation        6  13  2022 Yr   20 of   20 Time  16: 3:40
  Original Simulation        6  14  2022 Yr   20 of   20 Time  16: 3:40
  Original Simulation        6  15  2022 Yr   20 of   20 Time  16: 3:41
  Original Simulation        6  16  2022 Yr   20 of   20 Time  16: 3:41
  Original Simulation        6  17  2022 Yr   20 of   20 Time  16: 3:42
  Original Simulation        6  18  2022 Yr   20 of   20 Time  16: 3:42
  Original Simulation        6  19  2022 Yr   20 of   20 Time  16: 3:43
  Original Simulation        6  20  2022 Yr   20 of   20 Time  16: 3:43
  Original Simulation        6  21  2022 Yr   20 of   20 Time  16: 3:44
  Original Simulation        6  22  2022 Yr   20 of   20 Time  16: 3:45
  Original Simulation        6  23  2022 Yr   20 of   20 Time  16: 3:45
  Original Simulation        6  24  2022 Yr   20 of   20 Time  16: 3:46
  Original Simulation        6  25  2022 Yr   20 of   20 Time  16: 3:46
  Original Simulation        6  26  2022 Yr   20 of   20 Time  16: 3:47
  Original Simulation        6  27  2022 Yr   20 of   20 Time  16: 3:47
  Original Simulation        6  28  2022 Yr   20 of   20 Time  16: 3:48
  Original Simulation        6  29  2022 Yr   20 of   20 Time  16: 3:48
  Original Simulation        6  30  2022 Yr   20 of   20 Time  16: 3:49
  Original Simulation        7   1  2022 Yr   20 of   20 Time  16: 3:49
  Original Simulation        7   2  2022 Yr   20 of   20 Time  16: 3:50
  Original Simulation        7   3  2022 Yr   20 of   20 Time  16: 3:50
  Original Simulation        7   4  2022 Yr   20 of   20 Time  16: 3:51
  Original Simulation        7   5  2022 Yr   20 of   20 Time  16: 3:51
  Original Simulation        7   6  2022 Yr   20 of   20 Time  16: 3:52
  Original Simulation        7   7  2022 Yr   20 of   20 Time  16: 3:52
  Original Simulation        7   8  2022 Yr   20 of   20 Time  16: 3:53
  Original Simulation        7   9  2022 Yr   20 of   20 Time  16: 3:53
  Original Simulation        7  10  2022 Yr   20 of   20 Time  16: 3:54
  Original Simulation        7  11  2022 Yr   20 of   20 Time  16: 3:54
  Original Simulation        7  12  2022 Yr   20 of   20 Time  16: 3:55
  Original Simulation        7  13  2022 Yr   20 of   20 Time  16: 3:55
  Original Simulation        7  14  2022 Yr   20 of   20 Time  16: 3:56
  Original Simulation        7  15  2022 Yr   20 of   20 Time  16: 3:56
  Original Simulation        7  16  2022 Yr   20 of   20 Time  16: 3:57
  Original Simulation        7  17  2022 Yr   20 of   20 Time  16: 3:57
  Original Simulation        7  18  2022 Yr   20 of   20 Time  16: 3:58
  Original Simulation        7  19  2022 Yr   20 of   20 Time  16: 3:58
  Original Simulation        7  20  2022 Yr   20 of   20 Time  16: 3:59
  Original Simulation        7  21  2022 Yr   20 of   20 Time  16: 3:59
  Original Simulation        7  22  2022 Yr   20 of   20 Time  16: 4: 0
  Original Simulation        7  23  2022 Yr   20 of   20 Time  16: 4: 1
  Original Simulation        7  24  2022 Yr   20 of   20 Time  16: 4: 1
  Original Simulation        7  25  2022 Yr   20 of   20 Time  16: 4: 2
  Original Simulation        7  26  2022 Yr   20 of   20 Time  16: 4: 2
  Original Simulation        7  27  2022 Yr   20 of   20 Time  16: 4: 3
  Original Simulation        7  28  2022 Yr   20 of   20 Time  16: 4: 3
  Original Simulation        7  29  2022 Yr   20 of   20 Time  16: 4: 4
  Original Simulation        7  30  2022 Yr   20 of   20 Time  16: 4: 4
  Original Simulation        7  31  2022 Yr   20 of   20 Time  16: 4: 5
  Original Simulation        8   1  2022 Yr   20 of   20 Time  16: 4: 5
  Original Simulation        8   2  2022 Yr   20 of   20 Time  16: 4: 6
  Original Simulation        8   3  2022 Yr   20 of   20 Time  16: 4: 6
  Original Simulation        8   4  2022 Yr   20 of   20 Time  16: 4: 7
  Original Simulation        8   5  2022 Yr   20 of   20 Time  16: 4: 7
  Original Simulation        8   6  2022 Yr   20 of   20 Time  16: 4: 8
  Original Simulation        8   7  2022 Yr   20 of   20 Time  16: 4: 8
  Original Simulation        8   8  2022 Yr   20 of   20 Time  16: 4: 9
  Original Simulation        8   9  2022 Yr   20 of   20 Time  16: 4: 9
  Original Simulation        8  10  2022 Yr   20 of   20 Time  16: 4:10
  Original Simulation        8  11  2022 Yr   20 of   20 Time  16: 4:10
  Original Simulation        8  12  2022 Yr   20 of   20 Time  16: 4:11
  Original Simulation        8  13  2022 Yr   20 of   20 Time  16: 4:11
  Original Simulation        8  14  2022 Yr   20 of   20 Time  16: 4:12
  Original Simulation        8  15  2022 Yr   20 of   20 Time  16: 4:13
  Original Simulation        8  16  2022 Yr   20 of   20 Time  16: 4:13
  Original Simulation        8  17  2022 Yr   20 of   20 Time  16: 4:14
  Original Simulation        8  18  2022 Yr   20 of   20 Time  16: 4:14
  Original Simulation        8  19  2022 Yr   20 of   20 Time  16: 4:15
  Original Simulation        8  20  2022 Yr   20 of   20 Time  16: 4:15
  Original Simulation        8  21  2022 Yr   20 of   20 Time  16: 4:16
  Original Simulation        8  22  2022 Yr   20 of   20 Time  16: 4:16
  Original Simulation        8  23  2022 Yr   20 of   20 Time  16: 4:17
  Original Simulation        8  24  2022 Yr   20 of   20 Time  16: 4:17
  Original Simulation        8  25  2022 Yr   20 of   20 Time  16: 4:18
  Original Simulation        8  26  2022 Yr   20 of   20 Time  16: 4:18
  Original Simulation        8  27  2022 Yr   20 of   20 Time  16: 4:19
  Original Simulation        8  28  2022 Yr   20 of   20 Time  16: 4:19
  Original Simulation        8  29  2022 Yr   20 of   20 Time  16: 4:20
  Original Simulation        8  30  2022 Yr   20 of   20 Time  16: 4:20
  Original Simulation        8  31  2022 Yr   20 of   20 Time  16: 4:21
  Original Simulation        9   1  2022 Yr   20 of   20 Time  16: 4:21
  Original Simulation        9   2  2022 Yr   20 of   20 Time  16: 4:22
  Original Simulation        9   3  2022 Yr   20 of   20 Time  16: 4:22
  Original Simulation        9   4  2022 Yr   20 of   20 Time  16: 4:23
  Original Simulation        9   5  2022 Yr   20 of   20 Time  16: 4:23
  Original Simulation        9   6  2022 Yr   20 of   20 Time  16: 4:24
  Original Simulation        9   7  2022 Yr   20 of   20 Time  16: 4:24
  Original Simulation        9   8  2022 Yr   20 of   20 Time  16: 4:25
  Original Simulation        9   9  2022 Yr   20 of   20 Time  16: 4:25
  Original Simulation        9  10  2022 Yr   20 of   20 Time  16: 4:26
  Original Simulation        9  11  2022 Yr   20 of   20 Time  16: 4:26
  Original Simulation        9  12  2022 Yr   20 of   20 Time  16: 4:27
  Original Simulation        9  13  2022 Yr   20 of   20 Time  16: 4:28
  Original Simulation        9  14  2022 Yr   20 of   20 Time  16: 4:28
  Original Simulation        9  15  2022 Yr   20 of   20 Time  16: 4:29
  Original Simulation        9  16  2022 Yr   20 of   20 Time  16: 4:29
  Original Simulation        9  17  2022 Yr   20 of   20 Time  16: 4:30
  Original Simulation        9  18  2022 Yr   20 of   20 Time  16: 4:30
  Original Simulation        9  19  2022 Yr   20 of   20 Time  16: 4:31
  Original Simulation        9  20  2022 Yr   20 of   20 Time  16: 4:31
  Original Simulation        9  21  2022 Yr   20 of   20 Time  16: 4:32
  Original Simulation        9  22  2022 Yr   20 of   20 Time  16: 4:32
  Original Simulation        9  23  2022 Yr   20 of   20 Time  16: 4:33
  Original Simulation        9  24  2022 Yr   20 of   20 Time  16: 4:33
  Original Simulation        9  25  2022 Yr   20 of   20 Time  16: 4:34
  Original Simulation        9  26  2022 Yr   20 of   20 Time  16: 4:34
  Original Simulation        9  27  2022 Yr   20 of   20 Time  16: 4:35
  Original Simulation        9  28  2022 Yr   20 of   20 Time  16: 4:35
  Original Simulation        9  29  2022 Yr   20 of   20 Time  16: 4:36
  Original Simulation        9  30  2022 Yr   20 of   20 Time  16: 4:36
  Original Simulation       10   1  2022 Yr   20 of   20 Time  16: 4:37
  Original Simulation       10   2  2022 Yr   20 of   20 Time  16: 4:37
  Original Simulation       10   3  2022 Yr   20 of   20 Time  16: 4:38
  Original Simulation       10   4  2022 Yr   20 of   20 Time  16: 4:38
  Original Simulation       10   5  2022 Yr   20 of   20 Time  16: 4:39
  Original Simulation       10   6  2022 Yr   20 of   20 Time  16: 4:39
  Original Simulation       10   7  2022 Yr   20 of   20 Time  16: 4:40
  Original Simulation       10   8  2022 Yr   20 of   20 Time  16: 4:40
  Original Simulation       10   9  2022 Yr   20 of   20 Time  16: 4:41
  Original Simulation       10  10  2022 Yr   20 of   20 Time  16: 4:41
  Original Simulation       10  11  2022 Yr   20 of   20 Time  16: 4:42
  Original Simulation       10  12  2022 Yr   20 of   20 Time  16: 4:42
  Original Simulation       10  13  2022 Yr   20 of   20 Time  16: 4:43
  Original Simulation       10  14  2022 Yr   20 of   20 Time  16: 4:43
  Original Simulation       10  15  2022 Yr   20 of   20 Time  16: 4:44
  Original Simulation       10  16  2022 Yr   20 of   20 Time  16: 4:45
  Original Simulation       10  17  2022 Yr   20 of   20 Time  16: 4:45
  Original Simulation       10  18  2022 Yr   20 of   20 Time  16: 4:46
  Original Simulation       10  19  2022 Yr   20 of   20 Time  16: 4:46
  Original Simulation       10  20  2022 Yr   20 of   20 Time  16: 4:47
  Original Simulation       10  21  2022 Yr   20 of   20 Time  16: 4:47
  Original Simulation       10  22  2022 Yr   20 of   20 Time  16: 4:48
  Original Simulation       10  23  2022 Yr   20 of   20 Time  16: 4:48
  Original Simulation       10  24  2022 Yr   20 of   20 Time  16: 4:49
  Original Simulation       10  25  2022 Yr   20 of   20 Time  16: 4:49
  Original Simulation       10  26  2022 Yr   20 of   20 Time  16: 4:50
  Original Simulation       10  27  2022 Yr   20 of   20 Time  16: 4:50
  Original Simulation       10  28  2022 Yr   20 of   20 Time  16: 4:51
  Original Simulation       10  29  2022 Yr   20 of   20 Time  16: 4:51
  Original Simulation       10  30  2022 Yr   20 of   20 Time  16: 4:52
  Original Simulation       10  31  2022 Yr   20 of   20 Time  16: 4:52
  Original Simulation       11   1  2022 Yr   20 of   20 Time  16: 4:53
  Original Simulation       11   2  2022 Yr   20 of   20 Time  16: 4:53
  Original Simulation       11   3  2022 Yr   20 of   20 Time  16: 4:54
  Original Simulation       11   4  2022 Yr   20 of   20 Time  16: 4:54
  Original Simulation       11   5  2022 Yr   20 of   20 Time  16: 4:55
  Original Simulation       11   6  2022 Yr   20 of   20 Time  16: 4:55
  Original Simulation       11   7  2022 Yr   20 of   20 Time  16: 4:56
  Original Simulation       11   8  2022 Yr   20 of   20 Time  16: 4:56
  Original Simulation       11   9  2022 Yr   20 of   20 Time  16: 4:57
  Original Simulation       11  10  2022 Yr   20 of   20 Time  16: 4:57
  Original Simulation       11  11  2022 Yr   20 of   20 Time  16: 4:58
  Original Simulation       11  12  2022 Yr   20 of   20 Time  16: 4:59
  Original Simulation       11  13  2022 Yr   20 of   20 Time  16: 4:59
  Original Simulation       11  14  2022 Yr   20 of   20 Time  16: 5: 0
  Original Simulation       11  15  2022 Yr   20 of   20 Time  16: 5: 0
  Original Simulation       11  16  2022 Yr   20 of   20 Time  16: 5: 1
  Original Simulation       11  17  2022 Yr   20 of   20 Time  16: 5: 1
  Original Simulation       11  18  2022 Yr   20 of   20 Time  16: 5: 2
  Original Simulation       11  19  2022 Yr   20 of   20 Time  16: 5: 2
  Original Simulation       11  20  2022 Yr   20 of   20 Time  16: 5: 3
  Original Simulation       11  21  2022 Yr   20 of   20 Time  16: 5: 3
  Original Simulation       11  22  2022 Yr   20 of   20 Time  16: 5: 4
  Original Simulation       11  23  2022 Yr   20 of   20 Time  16: 5: 4
  Original Simulation       11  24  2022 Yr   20 of   20 Time  16: 5: 5
  Original Simulation       11  25  2022 Yr   20 of   20 Time  16: 5: 5
  Original Simulation       11  26  2022 Yr   20 of   20 Time  16: 5: 6
  Original Simulation       11  27  2022 Yr   20 of   20 Time  16: 5: 6
  Original Simulation       11  28  2022 Yr   20 of   20 Time  16: 5: 7
  Original Simulation       11  29  2022 Yr   20 of   20 Time  16: 5: 7
  Original Simulation       11  30  2022 Yr   20 of   20 Time  16: 5: 8
  Original Simulation       12   1  2022 Yr   20 of   20 Time  16: 5: 8
  Original Simulation       12   2  2022 Yr   20 of   20 Time  16: 5: 9
  Original Simulation       12   3  2022 Yr   20 of   20 Time  16: 5: 9
  Original Simulation       12   4  2022 Yr   20 of   20 Time  16: 5:10
  Original Simulation       12   5  2022 Yr   20 of   20 Time  16: 5:10
  Original Simulation       12   6  2022 Yr   20 of   20 Time  16: 5:11
  Original Simulation       12   7  2022 Yr   20 of   20 Time  16: 5:12
  Original Simulation       12   8  2022 Yr   20 of   20 Time  16: 5:12
  Original Simulation       12   9  2022 Yr   20 of   20 Time  16: 5:13
  Original Simulation       12  10  2022 Yr   20 of   20 Time  16: 5:13
  Original Simulation       12  11  2022 Yr   20 of   20 Time  16: 5:14
  Original Simulation       12  12  2022 Yr   20 of   20 Time  16: 5:14
  Original Simulation       12  13  2022 Yr   20 of   20 Time  16: 5:15
  Original Simulation       12  14  2022 Yr   20 of   20 Time  16: 5:15
  Original Simulation       12  15  2022 Yr   20 of   20 Time  16: 5:16
  Original Simulation       12  16  2022 Yr   20 of   20 Time  16: 5:16
  Original Simulation       12  17  2022 Yr   20 of   20 Time  16: 5:17
  Original Simulation       12  18  2022 Yr   20 of   20 Time  16: 5:17
  Original Simulation       12  19  2022 Yr   20 of   20 Time  16: 5:18
  Original Simulation       12  20  2022 Yr   20 of   20 Time  16: 5:18
  Original Simulation       12  21  2022 Yr   20 of   20 Time  16: 5:19
  Original Simulation       12  22  2022 Yr   20 of   20 Time  16: 5:19
  Original Simulation       12  23  2022 Yr   20 of   20 Time  16: 5:20
  Original Simulation       12  24  2022 Yr   20 of   20 Time  16: 5:20
  Original Simulation       12  25  2022 Yr   20 of   20 Time  16: 5:21
  Original Simulation       12  26  2022 Yr   20 of   20 Time  16: 5:21
  Original Simulation       12  27  2022 Yr   20 of   20 Time  16: 5:22
  Original Simulation       12  28  2022 Yr   20 of   20 Time  16: 5:22
  Original Simulation       12  29  2022 Yr   20 of   20 Time  16: 5:23
  Original Simulation       12  30  2022 Yr   20 of   20 Time  16: 5:23
  Original Simulation       12  31  2022 Yr   20 of   20 Time  16: 5:24

 Execution successfully completed 

  Date of Sim   4/20/2023 Time  16: 5:26
